*SPEF "IEEE 1481-1999"
*DESIGN "WriteBack"
*DATE "Sat Mar 15 22:32:58 2014"
*VENDOR "SYNOPSYS INC"
*PROGRAM "Synopsys Design Compiler cmos"
*VERSION "I-2013.12"
*DESIGN_FLOW "SYNTHESIS"
*DIVIDER /
*DELIMITER :
*BUS_DELIMITER []
*T_UNIT 1.0 NS
*C_UNIT 0.0010 PF
*R_UNIT 1000.0 KOHM
*L_UNIT 1.0 HENRY

*PORTS

exePacketValid0_i I *L 0.000e+00 *S 0.000e+00 0.000e+00 
exePacket0_i\[106\] I *L 0.000e+00 *S 0.000e+00 0.000e+00 
exePacket0_i\[105\] I *L 0.000e+00 *S 0.000e+00 0.000e+00 
exePacket0_i\[104\] I *L 0.000e+00 *S 0.000e+00 0.000e+00 
exePacket0_i\[103\] I *L 0.000e+00 *S 0.000e+00 0.000e+00 
exePacket0_i\[102\] I *L 0.000e+00 *S 0.000e+00 0.000e+00 
exePacket0_i\[101\] I *L 0.000e+00 *S 0.000e+00 0.000e+00 
exePacket0_i\[100\] I *L 0.000e+00 *S 0.000e+00 0.000e+00 
exePacket0_i\[99\] I *L 0.000e+00 *S 0.000e+00 0.000e+00 
exePacket0_i\[98\] I *L 0.000e+00 *S 0.000e+00 0.000e+00 
exePacket0_i\[97\] I *L 0.000e+00 *S 0.000e+00 0.000e+00 
exePacket0_i\[96\] I *L 0.000e+00 *S 0.000e+00 0.000e+00 
exePacket0_i\[95\] I *L 0.000e+00 *S 0.000e+00 0.000e+00 
exePacket0_i\[94\] I *L 0.000e+00 *S 0.000e+00 0.000e+00 
exePacket0_i\[93\] I *L 0.000e+00 *S 0.000e+00 0.000e+00 
exePacket0_i\[92\] I *L 0.000e+00 *S 0.000e+00 0.000e+00 
exePacket0_i\[91\] I *L 0.000e+00 *S 0.000e+00 0.000e+00 
exePacket0_i\[90\] I *L 0.000e+00 *S 0.000e+00 0.000e+00 
exePacket0_i\[89\] I *L 0.000e+00 *S 0.000e+00 0.000e+00 
exePacket0_i\[88\] I *L 0.000e+00 *S 0.000e+00 0.000e+00 
exePacket0_i\[87\] I *L 0.000e+00 *S 0.000e+00 0.000e+00 
exePacket0_i\[86\] I *L 0.000e+00 *S 0.000e+00 0.000e+00 
exePacket0_i\[85\] I *L 0.000e+00 *S 0.000e+00 0.000e+00 
exePacket0_i\[84\] I *L 0.000e+00 *S 0.000e+00 0.000e+00 
exePacket0_i\[83\] I *L 0.000e+00 *S 0.000e+00 0.000e+00 
exePacket0_i\[82\] I *L 0.000e+00 *S 0.000e+00 0.000e+00 
exePacket0_i\[81\] I *L 0.000e+00 *S 0.000e+00 0.000e+00 
exePacket0_i\[80\] I *L 0.000e+00 *S 0.000e+00 0.000e+00 
exePacket0_i\[79\] I *L 0.000e+00 *S 0.000e+00 0.000e+00 
exePacket0_i\[78\] I *L 0.000e+00 *S 0.000e+00 0.000e+00 
exePacket0_i\[77\] I *L 0.000e+00 *S 0.000e+00 0.000e+00 
exePacket0_i\[76\] I *L 0.000e+00 *S 0.000e+00 0.000e+00 
exePacket0_i\[75\] I *L 0.000e+00 *S 0.000e+00 0.000e+00 
exePacket0_i\[74\] I *L 0.000e+00 *S 0.000e+00 0.000e+00 
exePacket0_i\[73\] I *L 0.000e+00 *S 0.000e+00 0.000e+00 
exePacket0_i\[72\] I *L 0.000e+00 *S 0.000e+00 0.000e+00 
exePacket0_i\[71\] I *L 0.000e+00 *S 0.000e+00 0.000e+00 
exePacket0_i\[70\] I *L 0.000e+00 *S 0.000e+00 0.000e+00 
exePacket0_i\[69\] I *L 0.000e+00 *S 0.000e+00 0.000e+00 
exePacket0_i\[68\] I *L 0.000e+00 *S 0.000e+00 0.000e+00 
exePacket0_i\[67\] I *L 0.000e+00 *S 0.000e+00 0.000e+00 
exePacket0_i\[66\] I *L 0.000e+00 *S 0.000e+00 0.000e+00 
exePacket0_i\[65\] I *L 0.000e+00 *S 0.000e+00 0.000e+00 
exePacket0_i\[64\] I *L 0.000e+00 *S 0.000e+00 0.000e+00 
exePacket0_i\[63\] I *L 0.000e+00 *S 0.000e+00 0.000e+00 
exePacket0_i\[62\] I *L 0.000e+00 *S 0.000e+00 0.000e+00 
exePacket0_i\[61\] I *L 0.000e+00 *S 0.000e+00 0.000e+00 
exePacket0_i\[60\] I *L 0.000e+00 *S 0.000e+00 0.000e+00 
exePacket0_i\[59\] I *L 0.000e+00 *S 0.000e+00 0.000e+00 
exePacket0_i\[58\] I *L 0.000e+00 *S 0.000e+00 0.000e+00 
exePacket0_i\[57\] I *L 0.000e+00 *S 0.000e+00 0.000e+00 
exePacket0_i\[56\] I *L 0.000e+00 *S 0.000e+00 0.000e+00 
exePacket0_i\[55\] I *L 0.000e+00 *S 0.000e+00 0.000e+00 
exePacket0_i\[54\] I *L 0.000e+00 *S 0.000e+00 0.000e+00 
exePacket0_i\[53\] I *L 0.000e+00 *S 0.000e+00 0.000e+00 
exePacket0_i\[52\] I *L 0.000e+00 *S 0.000e+00 0.000e+00 
exePacket0_i\[51\] I *L 0.000e+00 *S 0.000e+00 0.000e+00 
exePacket0_i\[50\] I *L 0.000e+00 *S 0.000e+00 0.000e+00 
exePacket0_i\[49\] I *L 0.000e+00 *S 0.000e+00 0.000e+00 
exePacket0_i\[48\] I *L 0.000e+00 *S 0.000e+00 0.000e+00 
exePacket0_i\[47\] I *L 0.000e+00 *S 0.000e+00 0.000e+00 
exePacket0_i\[46\] I *L 0.000e+00 *S 0.000e+00 0.000e+00 
exePacket0_i\[45\] I *L 0.000e+00 *S 0.000e+00 0.000e+00 
exePacket0_i\[44\] I *L 0.000e+00 *S 0.000e+00 0.000e+00 
exePacket0_i\[43\] I *L 0.000e+00 *S 0.000e+00 0.000e+00 
exePacket0_i\[42\] I *L 0.000e+00 *S 0.000e+00 0.000e+00 
exePacket0_i\[41\] I *L 0.000e+00 *S 0.000e+00 0.000e+00 
exePacket0_i\[40\] I *L 0.000e+00 *S 0.000e+00 0.000e+00 
exePacket0_i\[39\] I *L 0.000e+00 *S 0.000e+00 0.000e+00 
exePacket0_i\[38\] I *L 0.000e+00 *S 0.000e+00 0.000e+00 
exePacket0_i\[37\] I *L 0.000e+00 *S 0.000e+00 0.000e+00 
exePacket0_i\[36\] I *L 0.000e+00 *S 0.000e+00 0.000e+00 
exePacket0_i\[35\] I *L 0.000e+00 *S 0.000e+00 0.000e+00 
exePacket0_i\[34\] I *L 0.000e+00 *S 0.000e+00 0.000e+00 
exePacket0_i\[33\] I *L 0.000e+00 *S 0.000e+00 0.000e+00 
exePacket0_i\[32\] I *L 0.000e+00 *S 0.000e+00 0.000e+00 
exePacket0_i\[31\] I *L 0.000e+00 *S 0.000e+00 0.000e+00 
exePacket0_i\[30\] I *L 0.000e+00 *S 0.000e+00 0.000e+00 
exePacket0_i\[29\] I *L 0.000e+00 *S 0.000e+00 0.000e+00 
exePacket0_i\[28\] I *L 0.000e+00 *S 0.000e+00 0.000e+00 
exePacket0_i\[27\] I *L 0.000e+00 *S 0.000e+00 0.000e+00 
exePacket0_i\[26\] I *L 0.000e+00 *S 0.000e+00 0.000e+00 
exePacket0_i\[25\] I *L 0.000e+00 *S 0.000e+00 0.000e+00 
exePacket0_i\[24\] I *L 0.000e+00 *S 0.000e+00 0.000e+00 
exePacket0_i\[23\] I *L 0.000e+00 *S 0.000e+00 0.000e+00 
exePacket0_i\[22\] I *L 0.000e+00 *S 0.000e+00 0.000e+00 
exePacket0_i\[21\] I *L 0.000e+00 *S 0.000e+00 0.000e+00 
exePacket0_i\[20\] I *L 0.000e+00 *S 0.000e+00 0.000e+00 
exePacket0_i\[19\] I *L 0.000e+00 *S 0.000e+00 0.000e+00 
exePacket0_i\[18\] I *L 0.000e+00 *S 0.000e+00 0.000e+00 
exePacket0_i\[17\] I *L 0.000e+00 *S 0.000e+00 0.000e+00 
exePacket0_i\[16\] I *L 0.000e+00 *S 0.000e+00 0.000e+00 
exePacket0_i\[15\] I *L 0.000e+00 *S 0.000e+00 0.000e+00 
exePacket0_i\[14\] I *L 0.000e+00 *S 0.000e+00 0.000e+00 
exePacket0_i\[13\] I *L 0.000e+00 *S 0.000e+00 0.000e+00 
exePacket0_i\[12\] I *L 0.000e+00 *S 0.000e+00 0.000e+00 
exePacket0_i\[11\] I *L 0.000e+00 *S 0.000e+00 0.000e+00 
exePacket0_i\[10\] I *L 0.000e+00 *S 0.000e+00 0.000e+00 
exePacket0_i\[9\] I *L 0.000e+00 *S 0.000e+00 0.000e+00 
exePacket0_i\[8\] I *L 0.000e+00 *S 0.000e+00 0.000e+00 
exePacket0_i\[7\] I *L 0.000e+00 *S 0.000e+00 0.000e+00 
exePacket0_i\[6\] I *L 0.000e+00 *S 0.000e+00 0.000e+00 
exePacket0_i\[5\] I *L 0.000e+00 *S 0.000e+00 0.000e+00 
exePacket0_i\[4\] I *L 0.000e+00 *S 0.000e+00 0.000e+00 
exePacket0_i\[3\] I *L 0.000e+00 *S 0.000e+00 0.000e+00 
exePacket0_i\[2\] I *L 0.000e+00 *S 0.000e+00 0.000e+00 
exePacket0_i\[1\] I *L 0.000e+00 *S 0.000e+00 0.000e+00 
exePacket0_i\[0\] I *L 0.000e+00 *S 0.000e+00 0.000e+00 
writebkValid0_o O *L 0.000e+00 *S 5.467e-03 4.631e-03 
ctrlFU0_o\[14\] O *L 0.000e+00 *S 5.624e-03 5.050e-03 
ctrlFU0_o\[13\] O *L 0.000e+00 *S 5.624e-03 5.050e-03 
ctrlFU0_o\[12\] O *L 0.000e+00 *S 5.624e-03 5.050e-03 
ctrlFU0_o\[11\] O *L 0.000e+00 *S 5.624e-03 5.050e-03 
ctrlFU0_o\[10\] O *L 0.000e+00 *S 5.624e-03 5.050e-03 
ctrlFU0_o\[9\] O *L 0.000e+00 *S 5.624e-03 5.050e-03 
ctrlFU0_o\[8\] O *L 0.000e+00 *S 5.624e-03 5.050e-03 
ctrlFU0_o\[7\] O *L 0.000e+00 *S 5.624e-03 5.050e-03 
ctrlFU0_o\[6\] O *L 0.000e+00 *S 5.624e-03 5.050e-03 
ctrlFU0_o\[5\] O *L 0.000e+00 *S 5.624e-03 5.050e-03 
ctrlFU0_o\[4\] O *L 0.000e+00 *S 1.152e-02 1.034e-02 
ctrlFU0_o\[3\] O *L 0.000e+00 *S 5.624e-03 5.050e-03 
ctrlFU0_o\[2\] O *L 0.000e+00 *S 5.624e-03 5.050e-03 
ctrlFU0_o\[1\] O *L 0.000e+00 *S 5.624e-03 5.050e-03 
ctrlFU0_o\[0\] O *L 0.000e+00 *S 5.624e-03 5.050e-03 
bypassValid0_o O *L 0.000e+00 *S 2.928e-05 2.708e-05 
bypassPacket0_o\[41\] O *L 0.000e+00 *S 5.624e-03 5.050e-03 
bypassPacket0_o\[40\] O *L 0.000e+00 *S 5.624e-03 5.050e-03 
bypassPacket0_o\[39\] O *L 0.000e+00 *S 5.624e-03 5.050e-03 
bypassPacket0_o\[38\] O *L 0.000e+00 *S 5.624e-03 5.050e-03 
bypassPacket0_o\[37\] O *L 0.000e+00 *S 5.624e-03 5.050e-03 
bypassPacket0_o\[36\] O *L 0.000e+00 *S 5.624e-03 5.050e-03 
bypassPacket0_o\[35\] O *L 0.000e+00 *S 5.624e-03 5.050e-03 
bypassPacket0_o\[34\] O *L 0.000e+00 *S 5.624e-03 5.050e-03 
bypassPacket0_o\[33\] O *L 0.000e+00 *S 5.624e-03 5.050e-03 
bypassPacket0_o\[32\] O *L 0.000e+00 *S 5.624e-03 5.050e-03 
bypassPacket0_o\[31\] O *L 0.000e+00 *S 5.624e-03 5.050e-03 
bypassPacket0_o\[30\] O *L 0.000e+00 *S 5.624e-03 5.050e-03 
bypassPacket0_o\[29\] O *L 0.000e+00 *S 5.624e-03 5.050e-03 
bypassPacket0_o\[28\] O *L 0.000e+00 *S 5.624e-03 5.050e-03 
bypassPacket0_o\[27\] O *L 0.000e+00 *S 5.624e-03 5.050e-03 
bypassPacket0_o\[26\] O *L 0.000e+00 *S 5.624e-03 5.050e-03 
bypassPacket0_o\[25\] O *L 0.000e+00 *S 5.624e-03 5.050e-03 
bypassPacket0_o\[24\] O *L 0.000e+00 *S 5.624e-03 5.050e-03 
bypassPacket0_o\[23\] O *L 0.000e+00 *S 5.624e-03 5.050e-03 
bypassPacket0_o\[22\] O *L 0.000e+00 *S 5.624e-03 5.050e-03 
bypassPacket0_o\[21\] O *L 0.000e+00 *S 5.624e-03 5.050e-03 
bypassPacket0_o\[20\] O *L 0.000e+00 *S 5.624e-03 5.050e-03 
bypassPacket0_o\[19\] O *L 0.000e+00 *S 5.624e-03 5.050e-03 
bypassPacket0_o\[18\] O *L 0.000e+00 *S 5.624e-03 5.050e-03 
bypassPacket0_o\[17\] O *L 0.000e+00 *S 5.624e-03 5.050e-03 
bypassPacket0_o\[16\] O *L 0.000e+00 *S 5.624e-03 5.050e-03 
bypassPacket0_o\[15\] O *L 0.000e+00 *S 5.624e-03 5.050e-03 
bypassPacket0_o\[14\] O *L 0.000e+00 *S 5.624e-03 5.050e-03 
bypassPacket0_o\[13\] O *L 0.000e+00 *S 5.624e-03 5.050e-03 
bypassPacket0_o\[12\] O *L 0.000e+00 *S 5.624e-03 5.050e-03 
bypassPacket0_o\[11\] O *L 0.000e+00 *S 5.624e-03 5.050e-03 
bypassPacket0_o\[10\] O *L 0.000e+00 *S 5.624e-03 5.050e-03 
bypassPacket0_o\[9\] O *L 0.000e+00 *S 5.624e-03 5.050e-03 
bypassPacket0_o\[8\] O *L 0.000e+00 *S 5.624e-03 5.050e-03 
bypassPacket0_o\[7\] O *L 0.000e+00 *S 5.624e-03 5.050e-03 
bypassPacket0_o\[6\] O *L 0.000e+00 *S 5.624e-03 5.050e-03 
bypassPacket0_o\[5\] O *L 0.000e+00 *S 5.624e-03 5.050e-03 
bypassPacket0_o\[4\] O *L 0.000e+00 *S 5.624e-03 5.050e-03 
bypassPacket0_o\[3\] O *L 0.000e+00 *S 5.624e-03 5.050e-03 
bypassPacket0_o\[2\] O *L 0.000e+00 *S 5.624e-03 5.050e-03 
bypassPacket0_o\[1\] O *L 0.000e+00 *S 5.624e-03 5.050e-03 
bypassPacket0_o\[0\] O *L 0.000e+00 *S 6.589e-05 5.481e-05 
computedAddr0_o\[31\] O *L 0.000e+00 *S 6.589e-05 5.481e-05 
computedAddr0_o\[30\] O *L 0.000e+00 *S 6.589e-05 5.481e-05 
computedAddr0_o\[29\] O *L 0.000e+00 *S 6.589e-05 5.481e-05 
computedAddr0_o\[28\] O *L 0.000e+00 *S 6.589e-05 5.481e-05 
computedAddr0_o\[27\] O *L 0.000e+00 *S 6.589e-05 5.481e-05 
computedAddr0_o\[26\] O *L 0.000e+00 *S 6.589e-05 5.481e-05 
computedAddr0_o\[25\] O *L 0.000e+00 *S 6.589e-05 5.481e-05 
computedAddr0_o\[24\] O *L 0.000e+00 *S 6.589e-05 5.481e-05 
computedAddr0_o\[23\] O *L 0.000e+00 *S 6.589e-05 5.481e-05 
computedAddr0_o\[22\] O *L 0.000e+00 *S 6.589e-05 5.481e-05 
computedAddr0_o\[21\] O *L 0.000e+00 *S 6.589e-05 5.481e-05 
computedAddr0_o\[20\] O *L 0.000e+00 *S 6.589e-05 5.481e-05 
computedAddr0_o\[19\] O *L 0.000e+00 *S 6.589e-05 5.481e-05 
computedAddr0_o\[18\] O *L 0.000e+00 *S 6.589e-05 5.481e-05 
computedAddr0_o\[17\] O *L 0.000e+00 *S 6.589e-05 5.481e-05 
computedAddr0_o\[16\] O *L 0.000e+00 *S 6.589e-05 5.481e-05 
computedAddr0_o\[15\] O *L 0.000e+00 *S 6.589e-05 5.481e-05 
computedAddr0_o\[14\] O *L 0.000e+00 *S 6.589e-05 5.481e-05 
computedAddr0_o\[13\] O *L 0.000e+00 *S 6.589e-05 5.481e-05 
computedAddr0_o\[12\] O *L 0.000e+00 *S 6.589e-05 5.481e-05 
computedAddr0_o\[11\] O *L 0.000e+00 *S 6.589e-05 5.481e-05 
computedAddr0_o\[10\] O *L 0.000e+00 *S 6.589e-05 5.481e-05 
computedAddr0_o\[9\] O *L 0.000e+00 *S 6.589e-05 5.481e-05 
computedAddr0_o\[8\] O *L 0.000e+00 *S 6.589e-05 5.481e-05 
computedAddr0_o\[7\] O *L 0.000e+00 *S 6.589e-05 5.481e-05 
computedAddr0_o\[6\] O *L 0.000e+00 *S 6.589e-05 5.481e-05 
computedAddr0_o\[5\] O *L 0.000e+00 *S 6.589e-05 5.481e-05 
computedAddr0_o\[4\] O *L 0.000e+00 *S 6.589e-05 5.481e-05 
computedAddr0_o\[3\] O *L 0.000e+00 *S 6.589e-05 5.481e-05 
computedAddr0_o\[2\] O *L 0.000e+00 *S 6.589e-05 5.481e-05 
computedAddr0_o\[1\] O *L 0.000e+00 *S 6.589e-05 5.481e-05 
computedAddr0_o\[0\] O *L 0.000e+00 *S 6.589e-05 5.481e-05 
exePacketValid1_i I *L 0.000e+00 *S 0.000e+00 0.000e+00 
exePacket1_i\[106\] I *L 0.000e+00 *S 0.000e+00 0.000e+00 
exePacket1_i\[105\] I *L 0.000e+00 *S 0.000e+00 0.000e+00 
exePacket1_i\[104\] I *L 0.000e+00 *S 0.000e+00 0.000e+00 
exePacket1_i\[103\] I *L 0.000e+00 *S 0.000e+00 0.000e+00 
exePacket1_i\[102\] I *L 0.000e+00 *S 0.000e+00 0.000e+00 
exePacket1_i\[101\] I *L 0.000e+00 *S 0.000e+00 0.000e+00 
exePacket1_i\[100\] I *L 0.000e+00 *S 0.000e+00 0.000e+00 
exePacket1_i\[99\] I *L 0.000e+00 *S 0.000e+00 0.000e+00 
exePacket1_i\[98\] I *L 0.000e+00 *S 0.000e+00 0.000e+00 
exePacket1_i\[97\] I *L 0.000e+00 *S 0.000e+00 0.000e+00 
exePacket1_i\[96\] I *L 0.000e+00 *S 0.000e+00 0.000e+00 
exePacket1_i\[95\] I *L 0.000e+00 *S 0.000e+00 0.000e+00 
exePacket1_i\[94\] I *L 0.000e+00 *S 0.000e+00 0.000e+00 
exePacket1_i\[93\] I *L 0.000e+00 *S 0.000e+00 0.000e+00 
exePacket1_i\[92\] I *L 0.000e+00 *S 0.000e+00 0.000e+00 
exePacket1_i\[91\] I *L 0.000e+00 *S 0.000e+00 0.000e+00 
exePacket1_i\[90\] I *L 0.000e+00 *S 0.000e+00 0.000e+00 
exePacket1_i\[89\] I *L 0.000e+00 *S 0.000e+00 0.000e+00 
exePacket1_i\[88\] I *L 0.000e+00 *S 0.000e+00 0.000e+00 
exePacket1_i\[87\] I *L 0.000e+00 *S 0.000e+00 0.000e+00 
exePacket1_i\[86\] I *L 0.000e+00 *S 0.000e+00 0.000e+00 
exePacket1_i\[85\] I *L 0.000e+00 *S 0.000e+00 0.000e+00 
exePacket1_i\[84\] I *L 0.000e+00 *S 0.000e+00 0.000e+00 
exePacket1_i\[83\] I *L 0.000e+00 *S 0.000e+00 0.000e+00 
exePacket1_i\[82\] I *L 0.000e+00 *S 0.000e+00 0.000e+00 
exePacket1_i\[81\] I *L 0.000e+00 *S 0.000e+00 0.000e+00 
exePacket1_i\[80\] I *L 0.000e+00 *S 0.000e+00 0.000e+00 
exePacket1_i\[79\] I *L 0.000e+00 *S 0.000e+00 0.000e+00 
exePacket1_i\[78\] I *L 0.000e+00 *S 0.000e+00 0.000e+00 
exePacket1_i\[77\] I *L 0.000e+00 *S 0.000e+00 0.000e+00 
exePacket1_i\[76\] I *L 0.000e+00 *S 0.000e+00 0.000e+00 
exePacket1_i\[75\] I *L 0.000e+00 *S 0.000e+00 0.000e+00 
exePacket1_i\[74\] I *L 0.000e+00 *S 0.000e+00 0.000e+00 
exePacket1_i\[73\] I *L 0.000e+00 *S 0.000e+00 0.000e+00 
exePacket1_i\[72\] I *L 0.000e+00 *S 0.000e+00 0.000e+00 
exePacket1_i\[71\] I *L 0.000e+00 *S 0.000e+00 0.000e+00 
exePacket1_i\[70\] I *L 0.000e+00 *S 0.000e+00 0.000e+00 
exePacket1_i\[69\] I *L 0.000e+00 *S 0.000e+00 0.000e+00 
exePacket1_i\[68\] I *L 0.000e+00 *S 0.000e+00 0.000e+00 
exePacket1_i\[67\] I *L 0.000e+00 *S 0.000e+00 0.000e+00 
exePacket1_i\[66\] I *L 0.000e+00 *S 0.000e+00 0.000e+00 
exePacket1_i\[65\] I *L 0.000e+00 *S 0.000e+00 0.000e+00 
exePacket1_i\[64\] I *L 0.000e+00 *S 0.000e+00 0.000e+00 
exePacket1_i\[63\] I *L 0.000e+00 *S 0.000e+00 0.000e+00 
exePacket1_i\[62\] I *L 0.000e+00 *S 0.000e+00 0.000e+00 
exePacket1_i\[61\] I *L 0.000e+00 *S 0.000e+00 0.000e+00 
exePacket1_i\[60\] I *L 0.000e+00 *S 0.000e+00 0.000e+00 
exePacket1_i\[59\] I *L 0.000e+00 *S 0.000e+00 0.000e+00 
exePacket1_i\[58\] I *L 0.000e+00 *S 0.000e+00 0.000e+00 
exePacket1_i\[57\] I *L 0.000e+00 *S 0.000e+00 0.000e+00 
exePacket1_i\[56\] I *L 0.000e+00 *S 0.000e+00 0.000e+00 
exePacket1_i\[55\] I *L 0.000e+00 *S 0.000e+00 0.000e+00 
exePacket1_i\[54\] I *L 0.000e+00 *S 0.000e+00 0.000e+00 
exePacket1_i\[53\] I *L 0.000e+00 *S 0.000e+00 0.000e+00 
exePacket1_i\[52\] I *L 0.000e+00 *S 0.000e+00 0.000e+00 
exePacket1_i\[51\] I *L 0.000e+00 *S 0.000e+00 0.000e+00 
exePacket1_i\[50\] I *L 0.000e+00 *S 0.000e+00 0.000e+00 
exePacket1_i\[49\] I *L 0.000e+00 *S 0.000e+00 0.000e+00 
exePacket1_i\[48\] I *L 0.000e+00 *S 0.000e+00 0.000e+00 
exePacket1_i\[47\] I *L 0.000e+00 *S 0.000e+00 0.000e+00 
exePacket1_i\[46\] I *L 0.000e+00 *S 0.000e+00 0.000e+00 
exePacket1_i\[45\] I *L 0.000e+00 *S 0.000e+00 0.000e+00 
exePacket1_i\[44\] I *L 0.000e+00 *S 0.000e+00 0.000e+00 
exePacket1_i\[43\] I *L 0.000e+00 *S 0.000e+00 0.000e+00 
exePacket1_i\[42\] I *L 0.000e+00 *S 0.000e+00 0.000e+00 
exePacket1_i\[41\] I *L 0.000e+00 *S 0.000e+00 0.000e+00 
exePacket1_i\[40\] I *L 0.000e+00 *S 0.000e+00 0.000e+00 
exePacket1_i\[39\] I *L 0.000e+00 *S 0.000e+00 0.000e+00 
exePacket1_i\[38\] I *L 0.000e+00 *S 0.000e+00 0.000e+00 
exePacket1_i\[37\] I *L 0.000e+00 *S 0.000e+00 0.000e+00 
exePacket1_i\[36\] I *L 0.000e+00 *S 0.000e+00 0.000e+00 
exePacket1_i\[35\] I *L 0.000e+00 *S 0.000e+00 0.000e+00 
exePacket1_i\[34\] I *L 0.000e+00 *S 0.000e+00 0.000e+00 
exePacket1_i\[33\] I *L 0.000e+00 *S 0.000e+00 0.000e+00 
exePacket1_i\[32\] I *L 0.000e+00 *S 0.000e+00 0.000e+00 
exePacket1_i\[31\] I *L 0.000e+00 *S 0.000e+00 0.000e+00 
exePacket1_i\[30\] I *L 0.000e+00 *S 0.000e+00 0.000e+00 
exePacket1_i\[29\] I *L 0.000e+00 *S 0.000e+00 0.000e+00 
exePacket1_i\[28\] I *L 0.000e+00 *S 0.000e+00 0.000e+00 
exePacket1_i\[27\] I *L 0.000e+00 *S 0.000e+00 0.000e+00 
exePacket1_i\[26\] I *L 0.000e+00 *S 0.000e+00 0.000e+00 
exePacket1_i\[25\] I *L 0.000e+00 *S 0.000e+00 0.000e+00 
exePacket1_i\[24\] I *L 0.000e+00 *S 0.000e+00 0.000e+00 
exePacket1_i\[23\] I *L 0.000e+00 *S 0.000e+00 0.000e+00 
exePacket1_i\[22\] I *L 0.000e+00 *S 0.000e+00 0.000e+00 
exePacket1_i\[21\] I *L 0.000e+00 *S 0.000e+00 0.000e+00 
exePacket1_i\[20\] I *L 0.000e+00 *S 0.000e+00 0.000e+00 
exePacket1_i\[19\] I *L 0.000e+00 *S 0.000e+00 0.000e+00 
exePacket1_i\[18\] I *L 0.000e+00 *S 0.000e+00 0.000e+00 
exePacket1_i\[17\] I *L 0.000e+00 *S 0.000e+00 0.000e+00 
exePacket1_i\[16\] I *L 0.000e+00 *S 0.000e+00 0.000e+00 
exePacket1_i\[15\] I *L 0.000e+00 *S 0.000e+00 0.000e+00 
exePacket1_i\[14\] I *L 0.000e+00 *S 0.000e+00 0.000e+00 
exePacket1_i\[13\] I *L 0.000e+00 *S 0.000e+00 0.000e+00 
exePacket1_i\[12\] I *L 0.000e+00 *S 0.000e+00 0.000e+00 
exePacket1_i\[11\] I *L 0.000e+00 *S 0.000e+00 0.000e+00 
exePacket1_i\[10\] I *L 0.000e+00 *S 0.000e+00 0.000e+00 
exePacket1_i\[9\] I *L 0.000e+00 *S 0.000e+00 0.000e+00 
exePacket1_i\[8\] I *L 0.000e+00 *S 0.000e+00 0.000e+00 
exePacket1_i\[7\] I *L 0.000e+00 *S 0.000e+00 0.000e+00 
exePacket1_i\[6\] I *L 0.000e+00 *S 0.000e+00 0.000e+00 
exePacket1_i\[5\] I *L 0.000e+00 *S 0.000e+00 0.000e+00 
exePacket1_i\[4\] I *L 0.000e+00 *S 0.000e+00 0.000e+00 
exePacket1_i\[3\] I *L 0.000e+00 *S 0.000e+00 0.000e+00 
exePacket1_i\[2\] I *L 0.000e+00 *S 0.000e+00 0.000e+00 
exePacket1_i\[1\] I *L 0.000e+00 *S 0.000e+00 0.000e+00 
exePacket1_i\[0\] I *L 0.000e+00 *S 0.000e+00 0.000e+00 
writebkValid1_o O *L 0.000e+00 *S 5.467e-03 4.631e-03 
ctrlFU1_o\[14\] O *L 0.000e+00 *S 5.624e-03 5.050e-03 
ctrlFU1_o\[13\] O *L 0.000e+00 *S 5.624e-03 5.050e-03 
ctrlFU1_o\[12\] O *L 0.000e+00 *S 5.624e-03 5.050e-03 
ctrlFU1_o\[11\] O *L 0.000e+00 *S 5.624e-03 5.050e-03 
ctrlFU1_o\[10\] O *L 0.000e+00 *S 5.624e-03 5.050e-03 
ctrlFU1_o\[9\] O *L 0.000e+00 *S 5.624e-03 5.050e-03 
ctrlFU1_o\[8\] O *L 0.000e+00 *S 5.624e-03 5.050e-03 
ctrlFU1_o\[7\] O *L 0.000e+00 *S 5.624e-03 5.050e-03 
ctrlFU1_o\[6\] O *L 0.000e+00 *S 5.624e-03 5.050e-03 
ctrlFU1_o\[5\] O *L 0.000e+00 *S 5.624e-03 5.050e-03 
ctrlFU1_o\[4\] O *L 0.000e+00 *S 1.152e-02 1.034e-02 
ctrlFU1_o\[3\] O *L 0.000e+00 *S 5.624e-03 5.050e-03 
ctrlFU1_o\[2\] O *L 0.000e+00 *S 5.624e-03 5.050e-03 
ctrlFU1_o\[1\] O *L 0.000e+00 *S 5.624e-03 5.050e-03 
ctrlFU1_o\[0\] O *L 0.000e+00 *S 5.624e-03 5.050e-03 
bypassValid1_o O *L 0.000e+00 *S 2.928e-05 2.708e-05 
bypassPacket1_o\[41\] O *L 0.000e+00 *S 5.624e-03 5.050e-03 
bypassPacket1_o\[40\] O *L 0.000e+00 *S 5.624e-03 5.050e-03 
bypassPacket1_o\[39\] O *L 0.000e+00 *S 5.624e-03 5.050e-03 
bypassPacket1_o\[38\] O *L 0.000e+00 *S 5.624e-03 5.050e-03 
bypassPacket1_o\[37\] O *L 0.000e+00 *S 5.624e-03 5.050e-03 
bypassPacket1_o\[36\] O *L 0.000e+00 *S 5.624e-03 5.050e-03 
bypassPacket1_o\[35\] O *L 0.000e+00 *S 5.624e-03 5.050e-03 
bypassPacket1_o\[34\] O *L 0.000e+00 *S 5.624e-03 5.050e-03 
bypassPacket1_o\[33\] O *L 0.000e+00 *S 5.624e-03 5.050e-03 
bypassPacket1_o\[32\] O *L 0.000e+00 *S 5.624e-03 5.050e-03 
bypassPacket1_o\[31\] O *L 0.000e+00 *S 5.624e-03 5.050e-03 
bypassPacket1_o\[30\] O *L 0.000e+00 *S 5.624e-03 5.050e-03 
bypassPacket1_o\[29\] O *L 0.000e+00 *S 5.624e-03 5.050e-03 
bypassPacket1_o\[28\] O *L 0.000e+00 *S 5.624e-03 5.050e-03 
bypassPacket1_o\[27\] O *L 0.000e+00 *S 5.624e-03 5.050e-03 
bypassPacket1_o\[26\] O *L 0.000e+00 *S 5.624e-03 5.050e-03 
bypassPacket1_o\[25\] O *L 0.000e+00 *S 5.624e-03 5.050e-03 
bypassPacket1_o\[24\] O *L 0.000e+00 *S 5.624e-03 5.050e-03 
bypassPacket1_o\[23\] O *L 0.000e+00 *S 5.624e-03 5.050e-03 
bypassPacket1_o\[22\] O *L 0.000e+00 *S 5.624e-03 5.050e-03 
bypassPacket1_o\[21\] O *L 0.000e+00 *S 5.624e-03 5.050e-03 
bypassPacket1_o\[20\] O *L 0.000e+00 *S 5.624e-03 5.050e-03 
bypassPacket1_o\[19\] O *L 0.000e+00 *S 5.624e-03 5.050e-03 
bypassPacket1_o\[18\] O *L 0.000e+00 *S 5.624e-03 5.050e-03 
bypassPacket1_o\[17\] O *L 0.000e+00 *S 5.624e-03 5.050e-03 
bypassPacket1_o\[16\] O *L 0.000e+00 *S 5.624e-03 5.050e-03 
bypassPacket1_o\[15\] O *L 0.000e+00 *S 5.624e-03 5.050e-03 
bypassPacket1_o\[14\] O *L 0.000e+00 *S 5.624e-03 5.050e-03 
bypassPacket1_o\[13\] O *L 0.000e+00 *S 5.624e-03 5.050e-03 
bypassPacket1_o\[12\] O *L 0.000e+00 *S 5.624e-03 5.050e-03 
bypassPacket1_o\[11\] O *L 0.000e+00 *S 5.624e-03 5.050e-03 
bypassPacket1_o\[10\] O *L 0.000e+00 *S 5.624e-03 5.050e-03 
bypassPacket1_o\[9\] O *L 0.000e+00 *S 5.624e-03 5.050e-03 
bypassPacket1_o\[8\] O *L 0.000e+00 *S 5.624e-03 5.050e-03 
bypassPacket1_o\[7\] O *L 0.000e+00 *S 5.624e-03 5.050e-03 
bypassPacket1_o\[6\] O *L 0.000e+00 *S 5.624e-03 5.050e-03 
bypassPacket1_o\[5\] O *L 0.000e+00 *S 5.624e-03 5.050e-03 
bypassPacket1_o\[4\] O *L 0.000e+00 *S 5.624e-03 5.050e-03 
bypassPacket1_o\[3\] O *L 0.000e+00 *S 5.624e-03 5.050e-03 
bypassPacket1_o\[2\] O *L 0.000e+00 *S 5.624e-03 5.050e-03 
bypassPacket1_o\[1\] O *L 0.000e+00 *S 5.624e-03 5.050e-03 
bypassPacket1_o\[0\] O *L 0.000e+00 *S 6.589e-05 5.481e-05 
computedAddr1_o\[31\] O *L 0.000e+00 *S 6.589e-05 5.481e-05 
computedAddr1_o\[30\] O *L 0.000e+00 *S 6.589e-05 5.481e-05 
computedAddr1_o\[29\] O *L 0.000e+00 *S 6.589e-05 5.481e-05 
computedAddr1_o\[28\] O *L 0.000e+00 *S 6.589e-05 5.481e-05 
computedAddr1_o\[27\] O *L 0.000e+00 *S 6.589e-05 5.481e-05 
computedAddr1_o\[26\] O *L 0.000e+00 *S 6.589e-05 5.481e-05 
computedAddr1_o\[25\] O *L 0.000e+00 *S 6.589e-05 5.481e-05 
computedAddr1_o\[24\] O *L 0.000e+00 *S 6.589e-05 5.481e-05 
computedAddr1_o\[23\] O *L 0.000e+00 *S 6.589e-05 5.481e-05 
computedAddr1_o\[22\] O *L 0.000e+00 *S 6.589e-05 5.481e-05 
computedAddr1_o\[21\] O *L 0.000e+00 *S 6.589e-05 5.481e-05 
computedAddr1_o\[20\] O *L 0.000e+00 *S 6.589e-05 5.481e-05 
computedAddr1_o\[19\] O *L 0.000e+00 *S 6.589e-05 5.481e-05 
computedAddr1_o\[18\] O *L 0.000e+00 *S 6.589e-05 5.481e-05 
computedAddr1_o\[17\] O *L 0.000e+00 *S 6.589e-05 5.481e-05 
computedAddr1_o\[16\] O *L 0.000e+00 *S 6.589e-05 5.481e-05 
computedAddr1_o\[15\] O *L 0.000e+00 *S 6.589e-05 5.481e-05 
computedAddr1_o\[14\] O *L 0.000e+00 *S 6.589e-05 5.481e-05 
computedAddr1_o\[13\] O *L 0.000e+00 *S 6.589e-05 5.481e-05 
computedAddr1_o\[12\] O *L 0.000e+00 *S 6.589e-05 5.481e-05 
computedAddr1_o\[11\] O *L 0.000e+00 *S 6.589e-05 5.481e-05 
computedAddr1_o\[10\] O *L 0.000e+00 *S 6.589e-05 5.481e-05 
computedAddr1_o\[9\] O *L 0.000e+00 *S 6.589e-05 5.481e-05 
computedAddr1_o\[8\] O *L 0.000e+00 *S 6.589e-05 5.481e-05 
computedAddr1_o\[7\] O *L 0.000e+00 *S 6.589e-05 5.481e-05 
computedAddr1_o\[6\] O *L 0.000e+00 *S 6.589e-05 5.481e-05 
computedAddr1_o\[5\] O *L 0.000e+00 *S 6.589e-05 5.481e-05 
computedAddr1_o\[4\] O *L 0.000e+00 *S 6.589e-05 5.481e-05 
computedAddr1_o\[3\] O *L 0.000e+00 *S 6.589e-05 5.481e-05 
computedAddr1_o\[2\] O *L 0.000e+00 *S 6.589e-05 5.481e-05 
computedAddr1_o\[1\] O *L 0.000e+00 *S 6.589e-05 5.481e-05 
computedAddr1_o\[0\] O *L 0.000e+00 *S 6.589e-05 5.481e-05 
exePacketValid2_i I *L 0.000e+00 *S 0.000e+00 0.000e+00 
exePacket2_i\[106\] I *L 0.000e+00 *S 0.000e+00 0.000e+00 
exePacket2_i\[105\] I *L 0.000e+00 *S 0.000e+00 0.000e+00 
exePacket2_i\[104\] I *L 0.000e+00 *S 0.000e+00 0.000e+00 
exePacket2_i\[103\] I *L 0.000e+00 *S 0.000e+00 0.000e+00 
exePacket2_i\[102\] I *L 0.000e+00 *S 0.000e+00 0.000e+00 
exePacket2_i\[101\] I *L 0.000e+00 *S 0.000e+00 0.000e+00 
exePacket2_i\[100\] I *L 0.000e+00 *S 0.000e+00 0.000e+00 
exePacket2_i\[99\] I *L 0.000e+00 *S 0.000e+00 0.000e+00 
exePacket2_i\[98\] I *L 0.000e+00 *S 0.000e+00 0.000e+00 
exePacket2_i\[97\] I *L 0.000e+00 *S 0.000e+00 0.000e+00 
exePacket2_i\[96\] I *L 0.000e+00 *S 0.000e+00 0.000e+00 
exePacket2_i\[95\] I *L 0.000e+00 *S 0.000e+00 0.000e+00 
exePacket2_i\[94\] I *L 0.000e+00 *S 0.000e+00 0.000e+00 
exePacket2_i\[93\] I *L 0.000e+00 *S 0.000e+00 0.000e+00 
exePacket2_i\[92\] I *L 0.000e+00 *S 0.000e+00 0.000e+00 
exePacket2_i\[91\] I *L 0.000e+00 *S 0.000e+00 0.000e+00 
exePacket2_i\[90\] I *L 0.000e+00 *S 0.000e+00 0.000e+00 
exePacket2_i\[89\] I *L 0.000e+00 *S 0.000e+00 0.000e+00 
exePacket2_i\[88\] I *L 0.000e+00 *S 0.000e+00 0.000e+00 
exePacket2_i\[87\] I *L 0.000e+00 *S 0.000e+00 0.000e+00 
exePacket2_i\[86\] I *L 0.000e+00 *S 0.000e+00 0.000e+00 
exePacket2_i\[85\] I *L 0.000e+00 *S 0.000e+00 0.000e+00 
exePacket2_i\[84\] I *L 0.000e+00 *S 0.000e+00 0.000e+00 
exePacket2_i\[83\] I *L 0.000e+00 *S 0.000e+00 0.000e+00 
exePacket2_i\[82\] I *L 0.000e+00 *S 0.000e+00 0.000e+00 
exePacket2_i\[81\] I *L 0.000e+00 *S 0.000e+00 0.000e+00 
exePacket2_i\[80\] I *L 0.000e+00 *S 0.000e+00 0.000e+00 
exePacket2_i\[79\] I *L 0.000e+00 *S 0.000e+00 0.000e+00 
exePacket2_i\[78\] I *L 0.000e+00 *S 0.000e+00 0.000e+00 
exePacket2_i\[77\] I *L 0.000e+00 *S 0.000e+00 0.000e+00 
exePacket2_i\[76\] I *L 0.000e+00 *S 0.000e+00 0.000e+00 
exePacket2_i\[75\] I *L 0.000e+00 *S 0.000e+00 0.000e+00 
exePacket2_i\[74\] I *L 0.000e+00 *S 0.000e+00 0.000e+00 
exePacket2_i\[73\] I *L 0.000e+00 *S 0.000e+00 0.000e+00 
exePacket2_i\[72\] I *L 0.000e+00 *S 0.000e+00 0.000e+00 
exePacket2_i\[71\] I *L 0.000e+00 *S 0.000e+00 0.000e+00 
exePacket2_i\[70\] I *L 0.000e+00 *S 0.000e+00 0.000e+00 
exePacket2_i\[69\] I *L 0.000e+00 *S 0.000e+00 0.000e+00 
exePacket2_i\[68\] I *L 0.000e+00 *S 0.000e+00 0.000e+00 
exePacket2_i\[67\] I *L 0.000e+00 *S 0.000e+00 0.000e+00 
exePacket2_i\[66\] I *L 0.000e+00 *S 0.000e+00 0.000e+00 
exePacket2_i\[65\] I *L 0.000e+00 *S 0.000e+00 0.000e+00 
exePacket2_i\[64\] I *L 0.000e+00 *S 0.000e+00 0.000e+00 
exePacket2_i\[63\] I *L 0.000e+00 *S 0.000e+00 0.000e+00 
exePacket2_i\[62\] I *L 0.000e+00 *S 0.000e+00 0.000e+00 
exePacket2_i\[61\] I *L 0.000e+00 *S 0.000e+00 0.000e+00 
exePacket2_i\[60\] I *L 0.000e+00 *S 0.000e+00 0.000e+00 
exePacket2_i\[59\] I *L 0.000e+00 *S 0.000e+00 0.000e+00 
exePacket2_i\[58\] I *L 0.000e+00 *S 0.000e+00 0.000e+00 
exePacket2_i\[57\] I *L 0.000e+00 *S 0.000e+00 0.000e+00 
exePacket2_i\[56\] I *L 0.000e+00 *S 0.000e+00 0.000e+00 
exePacket2_i\[55\] I *L 0.000e+00 *S 0.000e+00 0.000e+00 
exePacket2_i\[54\] I *L 0.000e+00 *S 0.000e+00 0.000e+00 
exePacket2_i\[53\] I *L 0.000e+00 *S 0.000e+00 0.000e+00 
exePacket2_i\[52\] I *L 0.000e+00 *S 0.000e+00 0.000e+00 
exePacket2_i\[51\] I *L 0.000e+00 *S 0.000e+00 0.000e+00 
exePacket2_i\[50\] I *L 0.000e+00 *S 0.000e+00 0.000e+00 
exePacket2_i\[49\] I *L 0.000e+00 *S 0.000e+00 0.000e+00 
exePacket2_i\[48\] I *L 0.000e+00 *S 0.000e+00 0.000e+00 
exePacket2_i\[47\] I *L 0.000e+00 *S 0.000e+00 0.000e+00 
exePacket2_i\[46\] I *L 0.000e+00 *S 0.000e+00 0.000e+00 
exePacket2_i\[45\] I *L 0.000e+00 *S 0.000e+00 0.000e+00 
exePacket2_i\[44\] I *L 0.000e+00 *S 0.000e+00 0.000e+00 
exePacket2_i\[43\] I *L 0.000e+00 *S 0.000e+00 0.000e+00 
exePacket2_i\[42\] I *L 0.000e+00 *S 0.000e+00 0.000e+00 
exePacket2_i\[41\] I *L 0.000e+00 *S 0.000e+00 0.000e+00 
exePacket2_i\[40\] I *L 0.000e+00 *S 0.000e+00 0.000e+00 
exePacket2_i\[39\] I *L 0.000e+00 *S 0.000e+00 0.000e+00 
exePacket2_i\[38\] I *L 0.000e+00 *S 0.000e+00 0.000e+00 
exePacket2_i\[37\] I *L 0.000e+00 *S 0.000e+00 0.000e+00 
exePacket2_i\[36\] I *L 0.000e+00 *S 0.000e+00 0.000e+00 
exePacket2_i\[35\] I *L 0.000e+00 *S 0.000e+00 0.000e+00 
exePacket2_i\[34\] I *L 0.000e+00 *S 0.000e+00 0.000e+00 
exePacket2_i\[33\] I *L 0.000e+00 *S 0.000e+00 0.000e+00 
exePacket2_i\[32\] I *L 0.000e+00 *S 0.000e+00 0.000e+00 
exePacket2_i\[31\] I *L 0.000e+00 *S 0.000e+00 0.000e+00 
exePacket2_i\[30\] I *L 0.000e+00 *S 0.000e+00 0.000e+00 
exePacket2_i\[29\] I *L 0.000e+00 *S 0.000e+00 0.000e+00 
exePacket2_i\[28\] I *L 0.000e+00 *S 0.000e+00 0.000e+00 
exePacket2_i\[27\] I *L 0.000e+00 *S 0.000e+00 0.000e+00 
exePacket2_i\[26\] I *L 0.000e+00 *S 0.000e+00 0.000e+00 
exePacket2_i\[25\] I *L 0.000e+00 *S 0.000e+00 0.000e+00 
exePacket2_i\[24\] I *L 0.000e+00 *S 0.000e+00 0.000e+00 
exePacket2_i\[23\] I *L 0.000e+00 *S 0.000e+00 0.000e+00 
exePacket2_i\[22\] I *L 0.000e+00 *S 0.000e+00 0.000e+00 
exePacket2_i\[21\] I *L 0.000e+00 *S 0.000e+00 0.000e+00 
exePacket2_i\[20\] I *L 0.000e+00 *S 0.000e+00 0.000e+00 
exePacket2_i\[19\] I *L 0.000e+00 *S 0.000e+00 0.000e+00 
exePacket2_i\[18\] I *L 0.000e+00 *S 0.000e+00 0.000e+00 
exePacket2_i\[17\] I *L 0.000e+00 *S 0.000e+00 0.000e+00 
exePacket2_i\[16\] I *L 0.000e+00 *S 0.000e+00 0.000e+00 
exePacket2_i\[15\] I *L 0.000e+00 *S 0.000e+00 0.000e+00 
exePacket2_i\[14\] I *L 0.000e+00 *S 0.000e+00 0.000e+00 
exePacket2_i\[13\] I *L 0.000e+00 *S 0.000e+00 0.000e+00 
exePacket2_i\[12\] I *L 0.000e+00 *S 0.000e+00 0.000e+00 
exePacket2_i\[11\] I *L 0.000e+00 *S 0.000e+00 0.000e+00 
exePacket2_i\[10\] I *L 0.000e+00 *S 0.000e+00 0.000e+00 
exePacket2_i\[9\] I *L 0.000e+00 *S 0.000e+00 0.000e+00 
exePacket2_i\[8\] I *L 0.000e+00 *S 0.000e+00 0.000e+00 
exePacket2_i\[7\] I *L 0.000e+00 *S 0.000e+00 0.000e+00 
exePacket2_i\[6\] I *L 0.000e+00 *S 0.000e+00 0.000e+00 
exePacket2_i\[5\] I *L 0.000e+00 *S 0.000e+00 0.000e+00 
exePacket2_i\[4\] I *L 0.000e+00 *S 0.000e+00 0.000e+00 
exePacket2_i\[3\] I *L 0.000e+00 *S 0.000e+00 0.000e+00 
exePacket2_i\[2\] I *L 0.000e+00 *S 0.000e+00 0.000e+00 
exePacket2_i\[1\] I *L 0.000e+00 *S 0.000e+00 0.000e+00 
exePacket2_i\[0\] I *L 0.000e+00 *S 0.000e+00 0.000e+00 
writebkValid2_o O *L 0.000e+00 *S 6.589e-05 5.481e-05 