*SPEF "IEEE 1481-1999"
*DESIGN "Decode"
*DATE "Sat Mar 15 20:02:16 2014"
*VENDOR "SYNOPSYS INC"
*PROGRAM "Synopsys Design Compiler cmos"
*VERSION "I-2013.12"
*DESIGN_FLOW "SYNTHESIS"
*DIVIDER /
*DELIMITER :
*BUS_DELIMITER []
*T_UNIT 1.0 NS
*C_UNIT 0.0010 PF
*R_UNIT 1000.0 KOHM
*L_UNIT 1.0 HENRY

*PORTS

reset I *L 0.000e+00 *S 0.000e+00 0.000e+00 
clk I *L 0.000e+00 *S 0.000e+00 0.000e+00 
fs2Ready_i I *L 0.000e+00 *S 0.000e+00 0.000e+00 
inst0PacketValid_i I *L 0.000e+00 *S 0.000e+00 0.000e+00 
inst0Packet_i\[132\] I *L 0.000e+00 *S 0.000e+00 0.000e+00 
inst0Packet_i\[131\] I *L 0.000e+00 *S 0.000e+00 0.000e+00 
inst0Packet_i\[130\] I *L 0.000e+00 *S 0.000e+00 0.000e+00 
inst0Packet_i\[129\] I *L 0.000e+00 *S 0.000e+00 0.000e+00 
inst0Packet_i\[128\] I *L 0.000e+00 *S 0.000e+00 0.000e+00 
inst0Packet_i\[127\] I *L 0.000e+00 *S 0.000e+00 0.000e+00 
inst0Packet_i\[126\] I *L 0.000e+00 *S 0.000e+00 0.000e+00 
inst0Packet_i\[125\] I *L 0.000e+00 *S 0.000e+00 0.000e+00 
inst0Packet_i\[124\] I *L 0.000e+00 *S 0.000e+00 0.000e+00 
inst0Packet_i\[123\] I *L 0.000e+00 *S 0.000e+00 0.000e+00 
inst0Packet_i\[122\] I *L 0.000e+00 *S 0.000e+00 0.000e+00 
inst0Packet_i\[121\] I *L 0.000e+00 *S 0.000e+00 0.000e+00 
inst0Packet_i\[120\] I *L 0.000e+00 *S 0.000e+00 0.000e+00 
inst0Packet_i\[119\] I *L 0.000e+00 *S 0.000e+00 0.000e+00 
inst0Packet_i\[118\] I *L 0.000e+00 *S 0.000e+00 0.000e+00 
inst0Packet_i\[117\] I *L 0.000e+00 *S 0.000e+00 0.000e+00 
inst0Packet_i\[116\] I *L 0.000e+00 *S 0.000e+00 0.000e+00 
inst0Packet_i\[115\] I *L 0.000e+00 *S 0.000e+00 0.000e+00 
inst0Packet_i\[114\] I *L 0.000e+00 *S 0.000e+00 0.000e+00 
inst0Packet_i\[113\] I *L 0.000e+00 *S 0.000e+00 0.000e+00 
inst0Packet_i\[112\] I *L 0.000e+00 *S 0.000e+00 0.000e+00 
inst0Packet_i\[111\] I *L 0.000e+00 *S 0.000e+00 0.000e+00 
inst0Packet_i\[110\] I *L 0.000e+00 *S 0.000e+00 0.000e+00 
inst0Packet_i\[109\] I *L 0.000e+00 *S 0.000e+00 0.000e+00 
inst0Packet_i\[108\] I *L 0.000e+00 *S 0.000e+00 0.000e+00 
inst0Packet_i\[107\] I *L 0.000e+00 *S 0.000e+00 0.000e+00 
inst0Packet_i\[106\] I *L 0.000e+00 *S 0.000e+00 0.000e+00 
inst0Packet_i\[105\] I *L 0.000e+00 *S 0.000e+00 0.000e+00 
inst0Packet_i\[104\] I *L 0.000e+00 *S 0.000e+00 0.000e+00 
inst0Packet_i\[103\] I *L 0.000e+00 *S 0.000e+00 0.000e+00 
inst0Packet_i\[102\] I *L 0.000e+00 *S 0.000e+00 0.000e+00 
inst0Packet_i\[101\] I *L 0.000e+00 *S 0.000e+00 0.000e+00 
inst0Packet_i\[100\] I *L 0.000e+00 *S 0.000e+00 0.000e+00 
inst0Packet_i\[99\] I *L 0.000e+00 *S 0.000e+00 0.000e+00 
inst0Packet_i\[98\] I *L 0.000e+00 *S 0.000e+00 0.000e+00 
inst0Packet_i\[97\] I *L 0.000e+00 *S 0.000e+00 0.000e+00 
inst0Packet_i\[96\] I *L 0.000e+00 *S 0.000e+00 0.000e+00 
inst0Packet_i\[95\] I *L 0.000e+00 *S 0.000e+00 0.000e+00 
inst0Packet_i\[94\] I *L 0.000e+00 *S 0.000e+00 0.000e+00 
inst0Packet_i\[93\] I *L 0.000e+00 *S 0.000e+00 0.000e+00 
inst0Packet_i\[92\] I *L 0.000e+00 *S 0.000e+00 0.000e+00 
inst0Packet_i\[91\] I *L 0.000e+00 *S 0.000e+00 0.000e+00 
inst0Packet_i\[90\] I *L 0.000e+00 *S 0.000e+00 0.000e+00 
inst0Packet_i\[89\] I *L 0.000e+00 *S 0.000e+00 0.000e+00 
inst0Packet_i\[88\] I *L 0.000e+00 *S 0.000e+00 0.000e+00 
inst0Packet_i\[87\] I *L 0.000e+00 *S 0.000e+00 0.000e+00 
inst0Packet_i\[86\] I *L 0.000e+00 *S 0.000e+00 0.000e+00 
inst0Packet_i\[85\] I *L 0.000e+00 *S 0.000e+00 0.000e+00 
inst0Packet_i\[84\] I *L 0.000e+00 *S 0.000e+00 0.000e+00 
inst0Packet_i\[83\] I *L 0.000e+00 *S 0.000e+00 0.000e+00 
inst0Packet_i\[82\] I *L 0.000e+00 *S 0.000e+00 0.000e+00 
inst0Packet_i\[81\] I *L 0.000e+00 *S 0.000e+00 0.000e+00 
inst0Packet_i\[80\] I *L 0.000e+00 *S 0.000e+00 0.000e+00 
inst0Packet_i\[79\] I *L 0.000e+00 *S 0.000e+00 0.000e+00 
inst0Packet_i\[78\] I *L 0.000e+00 *S 0.000e+00 0.000e+00 
inst0Packet_i\[77\] I *L 0.000e+00 *S 0.000e+00 0.000e+00 
inst0Packet_i\[76\] I *L 0.000e+00 *S 0.000e+00 0.000e+00 
inst0Packet_i\[75\] I *L 0.000e+00 *S 0.000e+00 0.000e+00 
inst0Packet_i\[74\] I *L 0.000e+00 *S 0.000e+00 0.000e+00 
inst0Packet_i\[73\] I *L 0.000e+00 *S 0.000e+00 0.000e+00 
inst0Packet_i\[72\] I *L 0.000e+00 *S 0.000e+00 0.000e+00 
inst0Packet_i\[71\] I *L 0.000e+00 *S 0.000e+00 0.000e+00 
inst0Packet_i\[70\] I *L 0.000e+00 *S 0.000e+00 0.000e+00 
inst0Packet_i\[69\] I *L 0.000e+00 *S 0.000e+00 0.000e+00 
inst0Packet_i\[68\] I *L 0.000e+00 *S 0.000e+00 0.000e+00 
inst0Packet_i\[67\] I *L 0.000e+00 *S 0.000e+00 0.000e+00 
inst0Packet_i\[66\] I *L 0.000e+00 *S 0.000e+00 0.000e+00 
inst0Packet_i\[65\] I *L 0.000e+00 *S 0.000e+00 0.000e+00 
inst0Packet_i\[64\] I *L 0.000e+00 *S 0.000e+00 0.000e+00 
inst0Packet_i\[63\] I *L 0.000e+00 *S 0.000e+00 0.000e+00 
inst0Packet_i\[62\] I *L 0.000e+00 *S 0.000e+00 0.000e+00 
inst0Packet_i\[61\] I *L 0.000e+00 *S 0.000e+00 0.000e+00 
inst0Packet_i\[60\] I *L 0.000e+00 *S 0.000e+00 0.000e+00 
inst0Packet_i\[59\] I *L 0.000e+00 *S 0.000e+00 0.000e+00 
inst0Packet_i\[58\] I *L 0.000e+00 *S 0.000e+00 0.000e+00 
inst0Packet_i\[57\] I *L 0.000e+00 *S 0.000e+00 0.000e+00 
inst0Packet_i\[56\] I *L 0.000e+00 *S 0.000e+00 0.000e+00 
inst0Packet_i\[55\] I *L 0.000e+00 *S 0.000e+00 0.000e+00 
inst0Packet_i\[54\] I *L 0.000e+00 *S 0.000e+00 0.000e+00 
inst0Packet_i\[53\] I *L 0.000e+00 *S 0.000e+00 0.000e+00 
inst0Packet_i\[52\] I *L 0.000e+00 *S 0.000e+00 0.000e+00 
inst0Packet_i\[51\] I *L 0.000e+00 *S 0.000e+00 0.000e+00 
inst0Packet_i\[50\] I *L 0.000e+00 *S 0.000e+00 0.000e+00 
inst0Packet_i\[49\] I *L 0.000e+00 *S 0.000e+00 0.000e+00 
inst0Packet_i\[48\] I *L 0.000e+00 *S 0.000e+00 0.000e+00 
inst0Packet_i\[47\] I *L 0.000e+00 *S 0.000e+00 0.000e+00 
inst0Packet_i\[46\] I *L 0.000e+00 *S 0.000e+00 0.000e+00 
inst0Packet_i\[45\] I *L 0.000e+00 *S 0.000e+00 0.000e+00 
inst0Packet_i\[44\] I *L 0.000e+00 *S 0.000e+00 0.000e+00 
inst0Packet_i\[43\] I *L 0.000e+00 *S 0.000e+00 0.000e+00 
inst0Packet_i\[42\] I *L 0.000e+00 *S 0.000e+00 0.000e+00 
inst0Packet_i\[41\] I *L 0.000e+00 *S 0.000e+00 0.000e+00 
inst0Packet_i\[40\] I *L 0.000e+00 *S 0.000e+00 0.000e+00 
inst0Packet_i\[39\] I *L 0.000e+00 *S 0.000e+00 0.000e+00 
inst0Packet_i\[38\] I *L 0.000e+00 *S 0.000e+00 0.000e+00 
inst0Packet_i\[37\] I *L 0.000e+00 *S 0.000e+00 0.000e+00 
inst0Packet_i\[36\] I *L 0.000e+00 *S 0.000e+00 0.000e+00 
inst0Packet_i\[35\] I *L 0.000e+00 *S 0.000e+00 0.000e+00 
inst0Packet_i\[34\] I *L 0.000e+00 *S 0.000e+00 0.000e+00 
inst0Packet_i\[33\] I *L 0.000e+00 *S 0.000e+00 0.000e+00 
inst0Packet_i\[32\] I *L 0.000e+00 *S 0.000e+00 0.000e+00 
inst0Packet_i\[31\] I *L 0.000e+00 *S 0.000e+00 0.000e+00 
inst0Packet_i\[30\] I *L 0.000e+00 *S 0.000e+00 0.000e+00 
inst0Packet_i\[29\] I *L 0.000e+00 *S 0.000e+00 0.000e+00 
inst0Packet_i\[28\] I *L 0.000e+00 *S 0.000e+00 0.000e+00 
inst0Packet_i\[27\] I *L 0.000e+00 *S 0.000e+00 0.000e+00 
inst0Packet_i\[26\] I *L 0.000e+00 *S 0.000e+00 0.000e+00 
inst0Packet_i\[25\] I *L 0.000e+00 *S 0.000e+00 0.000e+00 
inst0Packet_i\[24\] I *L 0.000e+00 *S 0.000e+00 0.000e+00 
inst0Packet_i\[23\] I *L 0.000e+00 *S 0.000e+00 0.000e+00 
inst0Packet_i\[22\] I *L 0.000e+00 *S 0.000e+00 0.000e+00 
inst0Packet_i\[21\] I *L 0.000e+00 *S 0.000e+00 0.000e+00 
inst0Packet_i\[20\] I *L 0.000e+00 *S 0.000e+00 0.000e+00 
inst0Packet_i\[19\] I *L 0.000e+00 *S 0.000e+00 0.000e+00 
inst0Packet_i\[18\] I *L 0.000e+00 *S 0.000e+00 0.000e+00 
inst0Packet_i\[17\] I *L 0.000e+00 *S 0.000e+00 0.000e+00 
inst0Packet_i\[16\] I *L 0.000e+00 *S 0.000e+00 0.000e+00 
inst0Packet_i\[15\] I *L 0.000e+00 *S 0.000e+00 0.000e+00 
inst0Packet_i\[14\] I *L 0.000e+00 *S 0.000e+00 0.000e+00 
inst0Packet_i\[13\] I *L 0.000e+00 *S 0.000e+00 0.000e+00 
inst0Packet_i\[12\] I *L 0.000e+00 *S 0.000e+00 0.000e+00 
inst0Packet_i\[11\] I *L 0.000e+00 *S 0.000e+00 0.000e+00 
inst0Packet_i\[10\] I *L 0.000e+00 *S 0.000e+00 0.000e+00 
inst0Packet_i\[9\] I *L 0.000e+00 *S 0.000e+00 0.000e+00 
inst0Packet_i\[8\] I *L 0.000e+00 *S 0.000e+00 0.000e+00 
inst0Packet_i\[7\] I *L 0.000e+00 *S 0.000e+00 0.000e+00 
inst0Packet_i\[6\] I *L 0.000e+00 *S 0.000e+00 0.000e+00 
inst0Packet_i\[5\] I *L 0.000e+00 *S 0.000e+00 0.000e+00 
inst0Packet_i\[4\] I *L 0.000e+00 *S 0.000e+00 0.000e+00 
inst0Packet_i\[3\] I *L 0.000e+00 *S 0.000e+00 0.000e+00 
inst0Packet_i\[2\] I *L 0.000e+00 *S 0.000e+00 0.000e+00 
inst0Packet_i\[1\] I *L 0.000e+00 *S 0.000e+00 0.000e+00 
inst0Packet_i\[0\] I *L 0.000e+00 *S 0.000e+00 0.000e+00 
inst1PacketValid_i I *L 0.000e+00 *S 0.000e+00 0.000e+00 
inst1Packet_i\[132\] I *L 0.000e+00 *S 0.000e+00 0.000e+00 
inst1Packet_i\[131\] I *L 0.000e+00 *S 0.000e+00 0.000e+00 
inst1Packet_i\[130\] I *L 0.000e+00 *S 0.000e+00 0.000e+00 
inst1Packet_i\[129\] I *L 0.000e+00 *S 0.000e+00 0.000e+00 
inst1Packet_i\[128\] I *L 0.000e+00 *S 0.000e+00 0.000e+00 
inst1Packet_i\[127\] I *L 0.000e+00 *S 0.000e+00 0.000e+00 
inst1Packet_i\[126\] I *L 0.000e+00 *S 0.000e+00 0.000e+00 
inst1Packet_i\[125\] I *L 0.000e+00 *S 0.000e+00 0.000e+00 
inst1Packet_i\[124\] I *L 0.000e+00 *S 0.000e+00 0.000e+00 
inst1Packet_i\[123\] I *L 0.000e+00 *S 0.000e+00 0.000e+00 
inst1Packet_i\[122\] I *L 0.000e+00 *S 0.000e+00 0.000e+00 
inst1Packet_i\[121\] I *L 0.000e+00 *S 0.000e+00 0.000e+00 
inst1Packet_i\[120\] I *L 0.000e+00 *S 0.000e+00 0.000e+00 
inst1Packet_i\[119\] I *L 0.000e+00 *S 0.000e+00 0.000e+00 
inst1Packet_i\[118\] I *L 0.000e+00 *S 0.000e+00 0.000e+00 
inst1Packet_i\[117\] I *L 0.000e+00 *S 0.000e+00 0.000e+00 
inst1Packet_i\[116\] I *L 0.000e+00 *S 0.000e+00 0.000e+00 
inst1Packet_i\[115\] I *L 0.000e+00 *S 0.000e+00 0.000e+00 
inst1Packet_i\[114\] I *L 0.000e+00 *S 0.000e+00 0.000e+00 
inst1Packet_i\[113\] I *L 0.000e+00 *S 0.000e+00 0.000e+00 
inst1Packet_i\[112\] I *L 0.000e+00 *S 0.000e+00 0.000e+00 
inst1Packet_i\[111\] I *L 0.000e+00 *S 0.000e+00 0.000e+00 
inst1Packet_i\[110\] I *L 0.000e+00 *S 0.000e+00 0.000e+00 
inst1Packet_i\[109\] I *L 0.000e+00 *S 0.000e+00 0.000e+00 
inst1Packet_i\[108\] I *L 0.000e+00 *S 0.000e+00 0.000e+00 
inst1Packet_i\[107\] I *L 0.000e+00 *S 0.000e+00 0.000e+00 
inst1Packet_i\[106\] I *L 0.000e+00 *S 0.000e+00 0.000e+00 
inst1Packet_i\[105\] I *L 0.000e+00 *S 0.000e+00 0.000e+00 
inst1Packet_i\[104\] I *L 0.000e+00 *S 0.000e+00 0.000e+00 
inst1Packet_i\[103\] I *L 0.000e+00 *S 0.000e+00 0.000e+00 
inst1Packet_i\[102\] I *L 0.000e+00 *S 0.000e+00 0.000e+00 
inst1Packet_i\[101\] I *L 0.000e+00 *S 0.000e+00 0.000e+00 
inst1Packet_i\[100\] I *L 0.000e+00 *S 0.000e+00 0.000e+00 
inst1Packet_i\[99\] I *L 0.000e+00 *S 0.000e+00 0.000e+00 
inst1Packet_i\[98\] I *L 0.000e+00 *S 0.000e+00 0.000e+00 
inst1Packet_i\[97\] I *L 0.000e+00 *S 0.000e+00 0.000e+00 
inst1Packet_i\[96\] I *L 0.000e+00 *S 0.000e+00 0.000e+00 
inst1Packet_i\[95\] I *L 0.000e+00 *S 0.000e+00 0.000e+00 
inst1Packet_i\[94\] I *L 0.000e+00 *S 0.000e+00 0.000e+00 
inst1Packet_i\[93\] I *L 0.000e+00 *S 0.000e+00 0.000e+00 
inst1Packet_i\[92\] I *L 0.000e+00 *S 0.000e+00 0.000e+00 
inst1Packet_i\[91\] I *L 0.000e+00 *S 0.000e+00 0.000e+00 
inst1Packet_i\[90\] I *L 0.000e+00 *S 0.000e+00 0.000e+00 
inst1Packet_i\[89\] I *L 0.000e+00 *S 0.000e+00 0.000e+00 
inst1Packet_i\[88\] I *L 0.000e+00 *S 0.000e+00 0.000e+00 
inst1Packet_i\[87\] I *L 0.000e+00 *S 0.000e+00 0.000e+00 
inst1Packet_i\[86\] I *L 0.000e+00 *S 0.000e+00 0.000e+00 
inst1Packet_i\[85\] I *L 0.000e+00 *S 0.000e+00 0.000e+00 
inst1Packet_i\[84\] I *L 0.000e+00 *S 0.000e+00 0.000e+00 
inst1Packet_i\[83\] I *L 0.000e+00 *S 0.000e+00 0.000e+00 
inst1Packet_i\[82\] I *L 0.000e+00 *S 0.000e+00 0.000e+00 
inst1Packet_i\[81\] I *L 0.000e+00 *S 0.000e+00 0.000e+00 
inst1Packet_i\[80\] I *L 0.000e+00 *S 0.000e+00 0.000e+00 
inst1Packet_i\[79\] I *L 0.000e+00 *S 0.000e+00 0.000e+00 
inst1Packet_i\[78\] I *L 0.000e+00 *S 0.000e+00 0.000e+00 
inst1Packet_i\[77\] I *L 0.000e+00 *S 0.000e+00 0.000e+00 
inst1Packet_i\[76\] I *L 0.000e+00 *S 0.000e+00 0.000e+00 
inst1Packet_i\[75\] I *L 0.000e+00 *S 0.000e+00 0.000e+00 
inst1Packet_i\[74\] I *L 0.000e+00 *S 0.000e+00 0.000e+00 
inst1Packet_i\[73\] I *L 0.000e+00 *S 0.000e+00 0.000e+00 
inst1Packet_i\[72\] I *L 0.000e+00 *S 0.000e+00 0.000e+00 
inst1Packet_i\[71\] I *L 0.000e+00 *S 0.000e+00 0.000e+00 
inst1Packet_i\[70\] I *L 0.000e+00 *S 0.000e+00 0.000e+00 
inst1Packet_i\[69\] I *L 0.000e+00 *S 0.000e+00 0.000e+00 
inst1Packet_i\[68\] I *L 0.000e+00 *S 0.000e+00 0.000e+00 
inst1Packet_i\[67\] I *L 0.000e+00 *S 0.000e+00 0.000e+00 
inst1Packet_i\[66\] I *L 0.000e+00 *S 0.000e+00 0.000e+00 
inst1Packet_i\[65\] I *L 0.000e+00 *S 0.000e+00 0.000e+00 
inst1Packet_i\[64\] I *L 0.000e+00 *S 0.000e+00 0.000e+00 
inst1Packet_i\[63\] I *L 0.000e+00 *S 0.000e+00 0.000e+00 
inst1Packet_i\[62\] I *L 0.000e+00 *S 0.000e+00 0.000e+00 
inst1Packet_i\[61\] I *L 0.000e+00 *S 0.000e+00 0.000e+00 
inst1Packet_i\[60\] I *L 0.000e+00 *S 0.000e+00 0.000e+00 
inst1Packet_i\[59\] I *L 0.000e+00 *S 0.000e+00 0.000e+00 
inst1Packet_i\[58\] I *L 0.000e+00 *S 0.000e+00 0.000e+00 
inst1Packet_i\[57\] I *L 0.000e+00 *S 0.000e+00 0.000e+00 
inst1Packet_i\[56\] I *L 0.000e+00 *S 0.000e+00 0.000e+00 
inst1Packet_i\[55\] I *L 0.000e+00 *S 0.000e+00 0.000e+00 
inst1Packet_i\[54\] I *L 0.000e+00 *S 0.000e+00 0.000e+00 
inst1Packet_i\[53\] I *L 0.000e+00 *S 0.000e+00 0.000e+00 
inst1Packet_i\[52\] I *L 0.000e+00 *S 0.000e+00 0.000e+00 
inst1Packet_i\[51\] I *L 0.000e+00 *S 0.000e+00 0.000e+00 
inst1Packet_i\[50\] I *L 0.000e+00 *S 0.000e+00 0.000e+00 
inst1Packet_i\[49\] I *L 0.000e+00 *S 0.000e+00 0.000e+00 
inst1Packet_i\[48\] I *L 0.000e+00 *S 0.000e+00 0.000e+00 
inst1Packet_i\[47\] I *L 0.000e+00 *S 0.000e+00 0.000e+00 
inst1Packet_i\[46\] I *L 0.000e+00 *S 0.000e+00 0.000e+00 
inst1Packet_i\[45\] I *L 0.000e+00 *S 0.000e+00 0.000e+00 
inst1Packet_i\[44\] I *L 0.000e+00 *S 0.000e+00 0.000e+00 
inst1Packet_i\[43\] I *L 0.000e+00 *S 0.000e+00 0.000e+00 
inst1Packet_i\[42\] I *L 0.000e+00 *S 0.000e+00 0.000e+00 
inst1Packet_i\[41\] I *L 0.000e+00 *S 0.000e+00 0.000e+00 
inst1Packet_i\[40\] I *L 0.000e+00 *S 0.000e+00 0.000e+00 
inst1Packet_i\[39\] I *L 0.000e+00 *S 0.000e+00 0.000e+00 
inst1Packet_i\[38\] I *L 0.000e+00 *S 0.000e+00 0.000e+00 
inst1Packet_i\[37\] I *L 0.000e+00 *S 0.000e+00 0.000e+00 
inst1Packet_i\[36\] I *L 0.000e+00 *S 0.000e+00 0.000e+00 
inst1Packet_i\[35\] I *L 0.000e+00 *S 0.000e+00 0.000e+00 
inst1Packet_i\[34\] I *L 0.000e+00 *S 0.000e+00 0.000e+00 
inst1Packet_i\[33\] I *L 0.000e+00 *S 0.000e+00 0.000e+00 
inst1Packet_i\[32\] I *L 0.000e+00 *S 0.000e+00 0.000e+00 
inst1Packet_i\[31\] I *L 0.000e+00 *S 0.000e+00 0.000e+00 
inst1Packet_i\[30\] I *L 0.000e+00 *S 0.000e+00 0.000e+00 
inst1Packet_i\[29\] I *L 0.000e+00 *S 0.000e+00 0.000e+00 
inst1Packet_i\[28\] I *L 0.000e+00 *S 0.000e+00 0.000e+00 
inst1Packet_i\[27\] I *L 0.000e+00 *S 0.000e+00 0.000e+00 
inst1Packet_i\[26\] I *L 0.000e+00 *S 0.000e+00 0.000e+00 
inst1Packet_i\[25\] I *L 0.000e+00 *S 0.000e+00 0.000e+00 
inst1Packet_i\[24\] I *L 0.000e+00 *S 0.000e+00 0.000e+00 
inst1Packet_i\[23\] I *L 0.000e+00 *S 0.000e+00 0.000e+00 
inst1Packet_i\[22\] I *L 0.000e+00 *S 0.000e+00 0.000e+00 
inst1Packet_i\[21\] I *L 0.000e+00 *S 0.000e+00 0.000e+00 
inst1Packet_i\[20\] I *L 0.000e+00 *S 0.000e+00 0.000e+00 
inst1Packet_i\[19\] I *L 0.000e+00 *S 0.000e+00 0.000e+00 
inst1Packet_i\[18\] I *L 0.000e+00 *S 0.000e+00 0.000e+00 
inst1Packet_i\[17\] I *L 0.000e+00 *S 0.000e+00 0.000e+00 
inst1Packet_i\[16\] I *L 0.000e+00 *S 0.000e+00 0.000e+00 
inst1Packet_i\[15\] I *L 0.000e+00 *S 0.000e+00 0.000e+00 
inst1Packet_i\[14\] I *L 0.000e+00 *S 0.000e+00 0.000e+00 
inst1Packet_i\[13\] I *L 0.000e+00 *S 0.000e+00 0.000e+00 
inst1Packet_i\[12\] I *L 0.000e+00 *S 0.000e+00 0.000e+00 
inst1Packet_i\[11\] I *L 0.000e+00 *S 0.000e+00 0.000e+00 
inst1Packet_i\[10\] I *L 0.000e+00 *S 0.000e+00 0.000e+00 
inst1Packet_i\[9\] I *L 0.000e+00 *S 0.000e+00 0.000e+00 
inst1Packet_i\[8\] I *L 0.000e+00 *S 0.000e+00 0.000e+00 
inst1Packet_i\[7\] I *L 0.000e+00 *S 0.000e+00 0.000e+00 
inst1Packet_i\[6\] I *L 0.000e+00 *S 0.000e+00 0.000e+00 
inst1Packet_i\[5\] I *L 0.000e+00 *S 0.000e+00 0.000e+00 
inst1Packet_i\[4\] I *L 0.000e+00 *S 0.000e+00 0.000e+00 
inst1Packet_i\[3\] I *L 0.000e+00 *S 0.000e+00 0.000e+00 
inst1Packet_i\[2\] I *L 0.000e+00 *S 0.000e+00 0.000e+00 
inst1Packet_i\[1\] I *L 0.000e+00 *S 0.000e+00 0.000e+00 
inst1Packet_i\[0\] I *L 0.000e+00 *S 0.000e+00 0.000e+00 
inst2PacketValid_i I *L 0.000e+00 *S 0.000e+00 0.000e+00 
inst2Packet_i\[132\] I *L 0.000e+00 *S 0.000e+00 0.000e+00 
inst2Packet_i\[131\] I *L 0.000e+00 *S 0.000e+00 0.000e+00 
inst2Packet_i\[130\] I *L 0.000e+00 *S 0.000e+00 0.000e+00 
inst2Packet_i\[129\] I *L 0.000e+00 *S 0.000e+00 0.000e+00 
inst2Packet_i\[128\] I *L 0.000e+00 *S 0.000e+00 0.000e+00 
inst2Packet_i\[127\] I *L 0.000e+00 *S 0.000e+00 0.000e+00 
inst2Packet_i\[126\] I *L 0.000e+00 *S 0.000e+00 0.000e+00 
inst2Packet_i\[125\] I *L 0.000e+00 *S 0.000e+00 0.000e+00 
inst2Packet_i\[124\] I *L 0.000e+00 *S 0.000e+00 0.000e+00 
inst2Packet_i\[123\] I *L 0.000e+00 *S 0.000e+00 0.000e+00 
inst2Packet_i\[122\] I *L 0.000e+00 *S 0.000e+00 0.000e+00 
inst2Packet_i\[121\] I *L 0.000e+00 *S 0.000e+00 0.000e+00 
inst2Packet_i\[120\] I *L 0.000e+00 *S 0.000e+00 0.000e+00 
inst2Packet_i\[119\] I *L 0.000e+00 *S 0.000e+00 0.000e+00 
inst2Packet_i\[118\] I *L 0.000e+00 *S 0.000e+00 0.000e+00 
inst2Packet_i\[117\] I *L 0.000e+00 *S 0.000e+00 0.000e+00 
inst2Packet_i\[116\] I *L 0.000e+00 *S 0.000e+00 0.000e+00 
inst2Packet_i\[115\] I *L 0.000e+00 *S 0.000e+00 0.000e+00 
inst2Packet_i\[114\] I *L 0.000e+00 *S 0.000e+00 0.000e+00 
inst2Packet_i\[113\] I *L 0.000e+00 *S 0.000e+00 0.000e+00 
inst2Packet_i\[112\] I *L 0.000e+00 *S 0.000e+00 0.000e+00 
inst2Packet_i\[111\] I *L 0.000e+00 *S 0.000e+00 0.000e+00 
inst2Packet_i\[110\] I *L 0.000e+00 *S 0.000e+00 0.000e+00 
inst2Packet_i\[109\] I *L 0.000e+00 *S 0.000e+00 0.000e+00 
inst2Packet_i\[108\] I *L 0.000e+00 *S 0.000e+00 0.000e+00 
inst2Packet_i\[107\] I *L 0.000e+00 *S 0.000e+00 0.000e+00 
inst2Packet_i\[106\] I *L 0.000e+00 *S 0.000e+00 0.000e+00 
inst2Packet_i\[105\] I *L 0.000e+00 *S 0.000e+00 0.000e+00 
inst2Packet_i\[104\] I *L 0.000e+00 *S 0.000e+00 0.000e+00 
inst2Packet_i\[103\] I *L 0.000e+00 *S 0.000e+00 0.000e+00 
inst2Packet_i\[102\] I *L 0.000e+00 *S 0.000e+00 0.000e+00 
inst2Packet_i\[101\] I *L 0.000e+00 *S 0.000e+00 0.000e+00 
inst2Packet_i\[100\] I *L 0.000e+00 *S 0.000e+00 0.000e+00 
inst2Packet_i\[99\] I *L 0.000e+00 *S 0.000e+00 0.000e+00 
inst2Packet_i\[98\] I *L 0.000e+00 *S 0.000e+00 0.000e+00 
inst2Packet_i\[97\] I *L 0.000e+00 *S 0.000e+00 0.000e+00 
inst2Packet_i\[96\] I *L 0.000e+00 *S 0.000e+00 0.000e+00 
inst2Packet_i\[95\] I *L 0.000e+00 *S 0.000e+00 0.000e+00 
inst2Packet_i\[94\] I *L 0.000e+00 *S 0.000e+00 0.000e+00 
inst2Packet_i\[93\] I *L 0.000e+00 *S 0.000e+00 0.000e+00 
inst2Packet_i\[92\] I *L 0.000e+00 *S 0.000e+00 0.000e+00 
inst2Packet_i\[91\] I *L 0.000e+00 *S 0.000e+00 0.000e+00 
inst2Packet_i\[90\] I *L 0.000e+00 *S 0.000e+00 0.000e+00 
inst2Packet_i\[89\] I *L 0.000e+00 *S 0.000e+00 0.000e+00 
inst2Packet_i\[88\] I *L 0.000e+00 *S 0.000e+00 0.000e+00 
inst2Packet_i\[87\] I *L 0.000e+00 *S 0.000e+00 0.000e+00 
inst2Packet_i\[86\] I *L 0.000e+00 *S 0.000e+00 0.000e+00 
inst2Packet_i\[85\] I *L 0.000e+00 *S 0.000e+00 0.000e+00 
inst2Packet_i\[84\] I *L 0.000e+00 *S 0.000e+00 0.000e+00 
inst2Packet_i\[83\] I *L 0.000e+00 *S 0.000e+00 0.000e+00 
inst2Packet_i\[82\] I *L 0.000e+00 *S 0.000e+00 0.000e+00 
inst2Packet_i\[81\] I *L 0.000e+00 *S 0.000e+00 0.000e+00 
inst2Packet_i\[80\] I *L 0.000e+00 *S 0.000e+00 0.000e+00 
inst2Packet_i\[79\] I *L 0.000e+00 *S 0.000e+00 0.000e+00 
inst2Packet_i\[78\] I *L 0.000e+00 *S 0.000e+00 0.000e+00 
inst2Packet_i\[77\] I *L 0.000e+00 *S 0.000e+00 0.000e+00 
inst2Packet_i\[76\] I *L 0.000e+00 *S 0.000e+00 0.000e+00 
inst2Packet_i\[75\] I *L 0.000e+00 *S 0.000e+00 0.000e+00 
inst2Packet_i\[74\] I *L 0.000e+00 *S 0.000e+00 0.000e+00 
inst2Packet_i\[73\] I *L 0.000e+00 *S 0.000e+00 0.000e+00 
inst2Packet_i\[72\] I *L 0.000e+00 *S 0.000e+00 0.000e+00 
inst2Packet_i\[71\] I *L 0.000e+00 *S 0.000e+00 0.000e+00 
inst2Packet_i\[70\] I *L 0.000e+00 *S 0.000e+00 0.000e+00 
inst2Packet_i\[69\] I *L 0.000e+00 *S 0.000e+00 0.000e+00 
inst2Packet_i\[68\] I *L 0.000e+00 *S 0.000e+00 0.000e+00 
inst2Packet_i\[67\] I *L 0.000e+00 *S 0.000e+00 0.000e+00 
inst2Packet_i\[66\] I *L 0.000e+00 *S 0.000e+00 0.000e+00 
inst2Packet_i\[65\] I *L 0.000e+00 *S 0.000e+00 0.000e+00 
inst2Packet_i\[64\] I *L 0.000e+00 *S 0.000e+00 0.000e+00 
inst2Packet_i\[63\] I *L 0.000e+00 *S 0.000e+00 0.000e+00 
inst2Packet_i\[62\] I *L 0.000e+00 *S 0.000e+00 0.000e+00 
inst2Packet_i\[61\] I *L 0.000e+00 *S 0.000e+00 0.000e+00 
inst2Packet_i\[60\] I *L 0.000e+00 *S 0.000e+00 0.000e+00 
inst2Packet_i\[59\] I *L 0.000e+00 *S 0.000e+00 0.000e+00 
inst2Packet_i\[58\] I *L 0.000e+00 *S 0.000e+00 0.000e+00 
inst2Packet_i\[57\] I *L 0.000e+00 *S 0.000e+00 0.000e+00 
inst2Packet_i\[56\] I *L 0.000e+00 *S 0.000e+00 0.000e+00 
inst2Packet_i\[55\] I *L 0.000e+00 *S 0.000e+00 0.000e+00 
inst2Packet_i\[54\] I *L 0.000e+00 *S 0.000e+00 0.000e+00 
inst2Packet_i\[53\] I *L 0.000e+00 *S 0.000e+00 0.000e+00 
inst2Packet_i\[52\] I *L 0.000e+00 *S 0.000e+00 0.000e+00 
inst2Packet_i\[51\] I *L 0.000e+00 *S 0.000e+00 0.000e+00 
inst2Packet_i\[50\] I *L 0.000e+00 *S 0.000e+00 0.000e+00 
inst2Packet_i\[49\] I *L 0.000e+00 *S 0.000e+00 0.000e+00 
inst2Packet_i\[48\] I *L 0.000e+00 *S 0.000e+00 0.000e+00 
inst2Packet_i\[47\] I *L 0.000e+00 *S 0.000e+00 0.000e+00 
inst2Packet_i\[46\] I *L 0.000e+00 *S 0.000e+00 0.000e+00 
inst2Packet_i\[45\] I *L 0.000e+00 *S 0.000e+00 0.000e+00 
inst2Packet_i\[44\] I *L 0.000e+00 *S 0.000e+00 0.000e+00 
inst2Packet_i\[43\] I *L 0.000e+00 *S 0.000e+00 0.000e+00 
inst2Packet_i\[42\] I *L 0.000e+00 *S 0.000e+00 0.000e+00 
inst2Packet_i\[41\] I *L 0.000e+00 *S 0.000e+00 0.000e+00 
inst2Packet_i\[40\] I *L 0.000e+00 *S 0.000e+00 0.000e+00 
inst2Packet_i\[39\] I *L 0.000e+00 *S 0.000e+00 0.000e+00 
inst2Packet_i\[38\] I *L 0.000e+00 *S 0.000e+00 0.000e+00 
inst2Packet_i\[37\] I *L 0.000e+00 *S 0.000e+00 0.000e+00 
inst2Packet_i\[36\] I *L 0.000e+00 *S 0.000e+00 0.000e+00 
inst2Packet_i\[35\] I *L 0.000e+00 *S 0.000e+00 0.000e+00 
inst2Packet_i\[34\] I *L 0.000e+00 *S 0.000e+00 0.000e+00 
inst2Packet_i\[33\] I *L 0.000e+00 *S 0.000e+00 0.000e+00 
inst2Packet_i\[32\] I *L 0.000e+00 *S 0.000e+00 0.000e+00 
inst2Packet_i\[31\] I *L 0.000e+00 *S 0.000e+00 0.000e+00 
inst2Packet_i\[30\] I *L 0.000e+00 *S 0.000e+00 0.000e+00 
inst2Packet_i\[29\] I *L 0.000e+00 *S 0.000e+00 0.000e+00 
inst2Packet_i\[28\] I *L 0.000e+00 *S 0.000e+00 0.000e+00 
inst2Packet_i\[27\] I *L 0.000e+00 *S 0.000e+00 0.000e+00 
inst2Packet_i\[26\] I *L 0.000e+00 *S 0.000e+00 0.000e+00 
inst2Packet_i\[25\] I *L 0.000e+00 *S 0.000e+00 0.000e+00 
inst2Packet_i\[24\] I *L 0.000e+00 *S 0.000e+00 0.000e+00 
inst2Packet_i\[23\] I *L 0.000e+00 *S 0.000e+00 0.000e+00 
inst2Packet_i\[22\] I *L 0.000e+00 *S 0.000e+00 0.000e+00 
inst2Packet_i\[21\] I *L 0.000e+00 *S 0.000e+00 0.000e+00 
inst2Packet_i\[20\] I *L 0.000e+00 *S 0.000e+00 0.000e+00 
inst2Packet_i\[19\] I *L 0.000e+00 *S 0.000e+00 0.000e+00 
inst2Packet_i\[18\] I *L 0.000e+00 *S 0.000e+00 0.000e+00 
inst2Packet_i\[17\] I *L 0.000e+00 *S 0.000e+00 0.000e+00 
inst2Packet_i\[16\] I *L 0.000e+00 *S 0.000e+00 0.000e+00 
inst2Packet_i\[15\] I *L 0.000e+00 *S 0.000e+00 0.000e+00 
inst2Packet_i\[14\] I *L 0.000e+00 *S 0.000e+00 0.000e+00 
inst2Packet_i\[13\] I *L 0.000e+00 *S 0.000e+00 0.000e+00 
inst2Packet_i\[12\] I *L 0.000e+00 *S 0.000e+00 0.000e+00 
inst2Packet_i\[11\] I *L 0.000e+00 *S 0.000e+00 0.000e+00 
inst2Packet_i\[10\] I *L 0.000e+00 *S 0.000e+00 0.000e+00 
inst2Packet_i\[9\] I *L 0.000e+00 *S 0.000e+00 0.000e+00 
inst2Packet_i\[8\] I *L 0.000e+00 *S 0.000e+00 0.000e+00 
inst2Packet_i\[7\] I *L 0.000e+00 *S 0.000e+00 0.000e+00 
inst2Packet_i\[6\] I *L 0.000e+00 *S 0.000e+00 0.000e+00 
inst2Packet_i\[5\] I *L 0.000e+00 *S 0.000e+00 0.000e+00 
inst2Packet_i\[4\] I *L 0.000e+00 *S 0.000e+00 0.000e+00 
inst2Packet_i\[3\] I *L 0.000e+00 *S 0.000e+00 0.000e+00 
inst2Packet_i\[2\] I *L 0.000e+00 *S 0.000e+00 0.000e+00 
inst2Packet_i\[1\] I *L 0.000e+00 *S 0.000e+00 0.000e+00 
inst2Packet_i\[0\] I *L 0.000e+00 *S 0.000e+00 0.000e+00 
inst3PacketValid_i I *L 0.000e+00 *S 0.000e+00 0.000e+00 
inst3Packet_i\[132\] I *L 0.000e+00 *S 0.000e+00 0.000e+00 
inst3Packet_i\[131\] I *L 0.000e+00 *S 0.000e+00 0.000e+00 
inst3Packet_i\[130\] I *L 0.000e+00 *S 0.000e+00 0.000e+00 
inst3Packet_i\[129\] I *L 0.000e+00 *S 0.000e+00 0.000e+00 
inst3Packet_i\[128\] I *L 0.000e+00 *S 0.000e+00 0.000e+00 
inst3Packet_i\[127\] I *L 0.000e+00 *S 0.000e+00 0.000e+00 
inst3Packet_i\[126\] I *L 0.000e+00 *S 0.000e+00 0.000e+00 
inst3Packet_i\[125\] I *L 0.000e+00 *S 0.000e+00 0.000e+00 
inst3Packet_i\[124\] I *L 0.000e+00 *S 0.000e+00 0.000e+00 
inst3Packet_i\[123\] I *L 0.000e+00 *S 0.000e+00 0.000e+00 
inst3Packet_i\[122\] I *L 0.000e+00 *S 0.000e+00 0.000e+00 
inst3Packet_i\[121\] I *L 0.000e+00 *S 0.000e+00 0.000e+00 
inst3Packet_i\[120\] I *L 0.000e+00 *S 0.000e+00 0.000e+00 
inst3Packet_i\[119\] I *L 0.000e+00 *S 0.000e+00 0.000e+00 
inst3Packet_i\[118\] I *L 0.000e+00 *S 0.000e+00 0.000e+00 
inst3Packet_i\[117\] I *L 0.000e+00 *S 0.000e+00 0.000e+00 
inst3Packet_i\[116\] I *L 0.000e+00 *S 0.000e+00 0.000e+00 
inst3Packet_i\[115\] I *L 0.000e+00 *S 0.000e+00 0.000e+00 
inst3Packet_i\[114\] I *L 0.000e+00 *S 0.000e+00 0.000e+00 
inst3Packet_i\[113\] I *L 0.000e+00 *S 0.000e+00 0.000e+00 
inst3Packet_i\[112\] I *L 0.000e+00 *S 0.000e+00 0.000e+00 
inst3Packet_i\[111\] I *L 0.000e+00 *S 0.000e+00 0.000e+00 
inst3Packet_i\[110\] I *L 0.000e+00 *S 0.000e+00 0.000e+00 
inst3Packet_i\[109\] I *L 0.000e+00 *S 0.000e+00 0.000e+00 
inst3Packet_i\[108\] I *L 0.000e+00 *S 0.000e+00 0.000e+00 
inst3Packet_i\[107\] I *L 0.000e+00 *S 0.000e+00 0.000e+00 
inst3Packet_i\[106\] I *L 0.000e+00 *S 0.000e+00 0.000e+00 
inst3Packet_i\[105\] I *L 0.000e+00 *S 0.000e+00 0.000e+00 
inst3Packet_i\[104\] I *L 0.000e+00 *S 0.000e+00 0.000e+00 
inst3Packet_i\[103\] I *L 0.000e+00 *S 0.000e+00 0.000e+00 
inst3Packet_i\[102\] I *L 0.000e+00 *S 0.000e+00 0.000e+00 
inst3Packet_i\[101\] I *L 0.000e+00 *S 0.000e+00 0.000e+00 
inst3Packet_i\[100\] I *L 0.000e+00 *S 0.000e+00 0.000e+00 
inst3Packet_i\[99\] I *L 0.000e+00 *S 0.000e+00 0.000e+00 
inst3Packet_i\[98\] I *L 0.000e+00 *S 0.000e+00 0.000e+00 
inst3Packet_i\[97\] I *L 0.000e+00 *S 0.000e+00 0.000e+00 
inst3Packet_i\[96\] I *L 0.000e+00 *S 0.000e+00 0.000e+00 
inst3Packet_i\[95\] I *L 0.000e+00 *S 0.000e+00 0.000e+00 
inst3Packet_i\[94\] I *L 0.000e+00 *S 0.000e+00 0.000e+00 
inst3Packet_i\[93\] I *L 0.000e+00 *S 0.000e+00 0.000e+00 
inst3Packet_i\[92\] I *L 0.000e+00 *S 0.000e+00 0.000e+00 
inst3Packet_i\[91\] I *L 0.000e+00 *S 0.000e+00 0.000e+00 
inst3Packet_i\[90\] I *L 0.000e+00 *S 0.000e+00 0.000e+00 
inst3Packet_i\[89\] I *L 0.000e+00 *S 0.000e+00 0.000e+00 
inst3Packet_i\[88\] I *L 0.000e+00 *S 0.000e+00 0.000e+00 
inst3Packet_i\[87\] I *L 0.000e+00 *S 0.000e+00 0.000e+00 
inst3Packet_i\[86\] I *L 0.000e+00 *S 0.000e+00 0.000e+00 
inst3Packet_i\[85\] I *L 0.000e+00 *S 0.000e+00 0.000e+00 
inst3Packet_i\[84\] I *L 0.000e+00 *S 0.000e+00 0.000e+00 
inst3Packet_i\[83\] I *L 0.000e+00 *S 0.000e+00 0.000e+00 
inst3Packet_i\[82\] I *L 0.000e+00 *S 0.000e+00 0.000e+00 
inst3Packet_i\[81\] I *L 0.000e+00 *S 0.000e+00 0.000e+00 
inst3Packet_i\[80\] I *L 0.000e+00 *S 0.000e+00 0.000e+00 
inst3Packet_i\[79\] I *L 0.000e+00 *S 0.000e+00 0.000e+00 
inst3Packet_i\[78\] I *L 0.000e+00 *S 0.000e+00 0.000e+00 
inst3Packet_i\[77\] I *L 0.000e+00 *S 0.000e+00 0.000e+00 
inst3Packet_i\[76\] I *L 0.000e+00 *S 0.000e+00 0.000e+00 
inst3Packet_i\[75\] I *L 0.000e+00 *S 0.000e+00 0.000e+00 
inst3Packet_i\[74\] I *L 0.000e+00 *S 0.000e+00 0.000e+00 
inst3Packet_i\[73\] I *L 0.000e+00 *S 0.000e+00 0.000e+00 
inst3Packet_i\[72\] I *L 0.000e+00 *S 0.000e+00 0.000e+00 
inst3Packet_i\[71\] I *L 0.000e+00 *S 0.000e+00 0.000e+00 
inst3Packet_i\[70\] I *L 0.000e+00 *S 0.000e+00 0.000e+00 
inst3Packet_i\[69\] I *L 0.000e+00 *S 0.000e+00 0.000e+00 
inst3Packet_i\[68\] I *L 0.000e+00 *S 0.000e+00 0.000e+00 
inst3Packet_i\[67\] I *L 0.000e+00 *S 0.000e+00 0.000e+00 
inst3Packet_i\[66\] I *L 0.000e+00 *S 0.000e+00 0.000e+00 
inst3Packet_i\[65\] I *L 0.000e+00 *S 0.000e+00 0.000e+00 
inst3Packet_i\[64\] I *L 0.000e+00 *S 0.000e+00 0.000e+00 
inst3Packet_i\[63\] I *L 0.000e+00 *S 0.000e+00 0.000e+00 
inst3Packet_i\[62\] I *L 0.000e+00 *S 0.000e+00 0.000e+00 
inst3Packet_i\[61\] I *L 0.000e+00 *S 0.000e+00 0.000e+00 
inst3Packet_i\[60\] I *L 0.000e+00 *S 0.000e+00 0.000e+00 
inst3Packet_i\[59\] I *L 0.000e+00 *S 0.000e+00 0.000e+00 
inst3Packet_i\[58\] I *L 0.000e+00 *S 0.000e+00 0.000e+00 
inst3Packet_i\[57\] I *L 0.000e+00 *S 0.000e+00 0.000e+00 
inst3Packet_i\[56\] I *L 0.000e+00 *S 0.000e+00 0.000e+00 
inst3Packet_i\[55\] I *L 0.000e+00 *S 0.000e+00 0.000e+00 
inst3Packet_i\[54\] I *L 0.000e+00 *S 0.000e+00 0.000e+00 
inst3Packet_i\[53\] I *L 0.000e+00 *S 0.000e+00 0.000e+00 
inst3Packet_i\[52\] I *L 0.000e+00 *S 0.000e+00 0.000e+00 
inst3Packet_i\[51\] I *L 0.000e+00 *S 0.000e+00 0.000e+00 
inst3Packet_i\[50\] I *L 0.000e+00 *S 0.000e+00 0.000e+00 
inst3Packet_i\[49\] I *L 0.000e+00 *S 0.000e+00 0.000e+00 
inst3Packet_i\[48\] I *L 0.000e+00 *S 0.000e+00 0.000e+00 
inst3Packet_i\[47\] I *L 0.000e+00 *S 0.000e+00 0.000e+00 
inst3Packet_i\[46\] I *L 0.000e+00 *S 0.000e+00 0.000e+00 
inst3Packet_i\[45\] I *L 0.000e+00 *S 0.000e+00 0.000e+00 
inst3Packet_i\[44\] I *L 0.000e+00 *S 0.000e+00 0.000e+00 
inst3Packet_i\[43\] I *L 0.000e+00 *S 0.000e+00 0.000e+00 
inst3Packet_i\[42\] I *L 0.000e+00 *S 0.000e+00 0.000e+00 
inst3Packet_i\[41\] I *L 0.000e+00 *S 0.000e+00 0.000e+00 
inst3Packet_i\[40\] I *L 0.000e+00 *S 0.000e+00 0.000e+00 
inst3Packet_i\[39\] I *L 0.000e+00 *S 0.000e+00 0.000e+00 
inst3Packet_i\[38\] I *L 0.000e+00 *S 0.000e+00 0.000e+00 
inst3Packet_i\[37\] I *L 0.000e+00 *S 0.000e+00 0.000e+00 