*SPEF "IEEE 1481-1999"
*DESIGN "InstructionBuffer"
*DATE "Sat Mar 15 20:41:32 2014"
*VENDOR "SYNOPSYS INC"
*PROGRAM "Synopsys Design Compiler cmos"
*VERSION "I-2013.12"
*DESIGN_FLOW "SYNTHESIS"
*DIVIDER /
*DELIMITER :
*BUS_DELIMITER []
*T_UNIT 1.0 NS
*C_UNIT 0.0010 PF
*R_UNIT 1000.0 KOHM
*L_UNIT 1.0 HENRY

*PORTS

clk I *L 0.000e+00 *S 0.000e+00 0.000e+00 
reset I *L 0.000e+00 *S 0.000e+00 0.000e+00 
flush_i I *L 0.000e+00 *S 0.000e+00 0.000e+00 
stall_i I *L 0.000e+00 *S 0.000e+00 0.000e+00 
decodeReady_i I *L 0.000e+00 *S 0.000e+00 0.000e+00 
decodedVector_i\[7\] I *L 0.000e+00 *S 0.000e+00 0.000e+00 
decodedVector_i\[6\] I *L 0.000e+00 *S 0.000e+00 0.000e+00 
decodedVector_i\[5\] I *L 0.000e+00 *S 0.000e+00 0.000e+00 
decodedVector_i\[4\] I *L 0.000e+00 *S 0.000e+00 0.000e+00 
decodedVector_i\[3\] I *L 0.000e+00 *S 0.000e+00 0.000e+00 
decodedVector_i\[2\] I *L 0.000e+00 *S 0.000e+00 0.000e+00 
decodedVector_i\[1\] I *L 0.000e+00 *S 0.000e+00 0.000e+00 
decodedVector_i\[0\] I *L 0.000e+00 *S 0.000e+00 0.000e+00 
decodedPacket0_i\[125\] I *L 0.000e+00 *S 0.000e+00 0.000e+00 
decodedPacket0_i\[124\] I *L 0.000e+00 *S 0.000e+00 0.000e+00 
decodedPacket0_i\[123\] I *L 0.000e+00 *S 0.000e+00 0.000e+00 
decodedPacket0_i\[122\] I *L 0.000e+00 *S 0.000e+00 0.000e+00 
decodedPacket0_i\[121\] I *L 0.000e+00 *S 0.000e+00 0.000e+00 
decodedPacket0_i\[120\] I *L 0.000e+00 *S 0.000e+00 0.000e+00 
decodedPacket0_i\[119\] I *L 0.000e+00 *S 0.000e+00 0.000e+00 
decodedPacket0_i\[118\] I *L 0.000e+00 *S 0.000e+00 0.000e+00 
decodedPacket0_i\[117\] I *L 0.000e+00 *S 0.000e+00 0.000e+00 
decodedPacket0_i\[116\] I *L 0.000e+00 *S 0.000e+00 0.000e+00 
decodedPacket0_i\[115\] I *L 0.000e+00 *S 0.000e+00 0.000e+00 
decodedPacket0_i\[114\] I *L 0.000e+00 *S 0.000e+00 0.000e+00 
decodedPacket0_i\[113\] I *L 0.000e+00 *S 0.000e+00 0.000e+00 
decodedPacket0_i\[112\] I *L 0.000e+00 *S 0.000e+00 0.000e+00 
decodedPacket0_i\[111\] I *L 0.000e+00 *S 0.000e+00 0.000e+00 
decodedPacket0_i\[110\] I *L 0.000e+00 *S 0.000e+00 0.000e+00 
decodedPacket0_i\[109\] I *L 0.000e+00 *S 0.000e+00 0.000e+00 
decodedPacket0_i\[108\] I *L 0.000e+00 *S 0.000e+00 0.000e+00 
decodedPacket0_i\[107\] I *L 0.000e+00 *S 0.000e+00 0.000e+00 
decodedPacket0_i\[106\] I *L 0.000e+00 *S 0.000e+00 0.000e+00 
decodedPacket0_i\[105\] I *L 0.000e+00 *S 0.000e+00 0.000e+00 
decodedPacket0_i\[104\] I *L 0.000e+00 *S 0.000e+00 0.000e+00 
decodedPacket0_i\[103\] I *L 0.000e+00 *S 0.000e+00 0.000e+00 
decodedPacket0_i\[102\] I *L 0.000e+00 *S 0.000e+00 0.000e+00 
decodedPacket0_i\[101\] I *L 0.000e+00 *S 0.000e+00 0.000e+00 
decodedPacket0_i\[100\] I *L 0.000e+00 *S 0.000e+00 0.000e+00 
decodedPacket0_i\[99\] I *L 0.000e+00 *S 0.000e+00 0.000e+00 
decodedPacket0_i\[98\] I *L 0.000e+00 *S 0.000e+00 0.000e+00 
decodedPacket0_i\[97\] I *L 0.000e+00 *S 0.000e+00 0.000e+00 
decodedPacket0_i\[96\] I *L 0.000e+00 *S 0.000e+00 0.000e+00 
decodedPacket0_i\[95\] I *L 0.000e+00 *S 0.000e+00 0.000e+00 
decodedPacket0_i\[94\] I *L 0.000e+00 *S 0.000e+00 0.000e+00 
decodedPacket0_i\[93\] I *L 0.000e+00 *S 0.000e+00 0.000e+00 
decodedPacket0_i\[92\] I *L 0.000e+00 *S 0.000e+00 0.000e+00 
decodedPacket0_i\[91\] I *L 0.000e+00 *S 0.000e+00 0.000e+00 
decodedPacket0_i\[90\] I *L 0.000e+00 *S 0.000e+00 0.000e+00 
decodedPacket0_i\[89\] I *L 0.000e+00 *S 0.000e+00 0.000e+00 
decodedPacket0_i\[88\] I *L 0.000e+00 *S 0.000e+00 0.000e+00 
decodedPacket0_i\[87\] I *L 0.000e+00 *S 0.000e+00 0.000e+00 
decodedPacket0_i\[86\] I *L 0.000e+00 *S 0.000e+00 0.000e+00 
decodedPacket0_i\[85\] I *L 0.000e+00 *S 0.000e+00 0.000e+00 
decodedPacket0_i\[84\] I *L 0.000e+00 *S 0.000e+00 0.000e+00 
decodedPacket0_i\[83\] I *L 0.000e+00 *S 0.000e+00 0.000e+00 
decodedPacket0_i\[82\] I *L 0.000e+00 *S 0.000e+00 0.000e+00 
decodedPacket0_i\[81\] I *L 0.000e+00 *S 0.000e+00 0.000e+00 
decodedPacket0_i\[80\] I *L 0.000e+00 *S 0.000e+00 0.000e+00 
decodedPacket0_i\[79\] I *L 0.000e+00 *S 0.000e+00 0.000e+00 
decodedPacket0_i\[78\] I *L 0.000e+00 *S 0.000e+00 0.000e+00 
decodedPacket0_i\[77\] I *L 0.000e+00 *S 0.000e+00 0.000e+00 
decodedPacket0_i\[76\] I *L 0.000e+00 *S 0.000e+00 0.000e+00 
decodedPacket0_i\[75\] I *L 0.000e+00 *S 0.000e+00 0.000e+00 
decodedPacket0_i\[74\] I *L 0.000e+00 *S 0.000e+00 0.000e+00 
decodedPacket0_i\[73\] I *L 0.000e+00 *S 0.000e+00 0.000e+00 
decodedPacket0_i\[72\] I *L 0.000e+00 *S 0.000e+00 0.000e+00 
decodedPacket0_i\[71\] I *L 0.000e+00 *S 0.000e+00 0.000e+00 
decodedPacket0_i\[70\] I *L 0.000e+00 *S 0.000e+00 0.000e+00 
decodedPacket0_i\[69\] I *L 0.000e+00 *S 0.000e+00 0.000e+00 
decodedPacket0_i\[68\] I *L 0.000e+00 *S 0.000e+00 0.000e+00 
decodedPacket0_i\[67\] I *L 0.000e+00 *S 0.000e+00 0.000e+00 
decodedPacket0_i\[66\] I *L 0.000e+00 *S 0.000e+00 0.000e+00 
decodedPacket0_i\[65\] I *L 0.000e+00 *S 0.000e+00 0.000e+00 
decodedPacket0_i\[64\] I *L 0.000e+00 *S 0.000e+00 0.000e+00 
decodedPacket0_i\[63\] I *L 0.000e+00 *S 0.000e+00 0.000e+00 
decodedPacket0_i\[62\] I *L 0.000e+00 *S 0.000e+00 0.000e+00 
decodedPacket0_i\[61\] I *L 0.000e+00 *S 0.000e+00 0.000e+00 
decodedPacket0_i\[60\] I *L 0.000e+00 *S 0.000e+00 0.000e+00 
decodedPacket0_i\[59\] I *L 0.000e+00 *S 0.000e+00 0.000e+00 
decodedPacket0_i\[58\] I *L 0.000e+00 *S 0.000e+00 0.000e+00 
decodedPacket0_i\[57\] I *L 0.000e+00 *S 0.000e+00 0.000e+00 
decodedPacket0_i\[56\] I *L 0.000e+00 *S 0.000e+00 0.000e+00 
decodedPacket0_i\[55\] I *L 0.000e+00 *S 0.000e+00 0.000e+00 
decodedPacket0_i\[54\] I *L 0.000e+00 *S 0.000e+00 0.000e+00 
decodedPacket0_i\[53\] I *L 0.000e+00 *S 0.000e+00 0.000e+00 
decodedPacket0_i\[52\] I *L 0.000e+00 *S 0.000e+00 0.000e+00 
decodedPacket0_i\[51\] I *L 0.000e+00 *S 0.000e+00 0.000e+00 
decodedPacket0_i\[50\] I *L 0.000e+00 *S 0.000e+00 0.000e+00 
decodedPacket0_i\[49\] I *L 0.000e+00 *S 0.000e+00 0.000e+00 
decodedPacket0_i\[48\] I *L 0.000e+00 *S 0.000e+00 0.000e+00 
decodedPacket0_i\[47\] I *L 0.000e+00 *S 0.000e+00 0.000e+00 
decodedPacket0_i\[46\] I *L 0.000e+00 *S 0.000e+00 0.000e+00 
decodedPacket0_i\[45\] I *L 0.000e+00 *S 0.000e+00 0.000e+00 
decodedPacket0_i\[44\] I *L 0.000e+00 *S 0.000e+00 0.000e+00 
decodedPacket0_i\[43\] I *L 0.000e+00 *S 0.000e+00 0.000e+00 
decodedPacket0_i\[42\] I *L 0.000e+00 *S 0.000e+00 0.000e+00 
decodedPacket0_i\[41\] I *L 0.000e+00 *S 0.000e+00 0.000e+00 
decodedPacket0_i\[40\] I *L 0.000e+00 *S 0.000e+00 0.000e+00 
decodedPacket0_i\[39\] I *L 0.000e+00 *S 0.000e+00 0.000e+00 
decodedPacket0_i\[38\] I *L 0.000e+00 *S 0.000e+00 0.000e+00 
decodedPacket0_i\[37\] I *L 0.000e+00 *S 0.000e+00 0.000e+00 
decodedPacket0_i\[36\] I *L 0.000e+00 *S 0.000e+00 0.000e+00 
decodedPacket0_i\[35\] I *L 0.000e+00 *S 0.000e+00 0.000e+00 
decodedPacket0_i\[34\] I *L 0.000e+00 *S 0.000e+00 0.000e+00 
decodedPacket0_i\[33\] I *L 0.000e+00 *S 0.000e+00 0.000e+00 
decodedPacket0_i\[32\] I *L 0.000e+00 *S 0.000e+00 0.000e+00 
decodedPacket0_i\[31\] I *L 0.000e+00 *S 0.000e+00 0.000e+00 
decodedPacket0_i\[30\] I *L 0.000e+00 *S 0.000e+00 0.000e+00 
decodedPacket0_i\[29\] I *L 0.000e+00 *S 0.000e+00 0.000e+00 
decodedPacket0_i\[28\] I *L 0.000e+00 *S 0.000e+00 0.000e+00 
decodedPacket0_i\[27\] I *L 0.000e+00 *S 0.000e+00 0.000e+00 
decodedPacket0_i\[26\] I *L 0.000e+00 *S 0.000e+00 0.000e+00 
decodedPacket0_i\[25\] I *L 0.000e+00 *S 0.000e+00 0.000e+00 
decodedPacket0_i\[24\] I *L 0.000e+00 *S 0.000e+00 0.000e+00 
decodedPacket0_i\[23\] I *L 0.000e+00 *S 0.000e+00 0.000e+00 
decodedPacket0_i\[22\] I *L 0.000e+00 *S 0.000e+00 0.000e+00 
decodedPacket0_i\[21\] I *L 0.000e+00 *S 0.000e+00 0.000e+00 
decodedPacket0_i\[20\] I *L 0.000e+00 *S 0.000e+00 0.000e+00 
decodedPacket0_i\[19\] I *L 0.000e+00 *S 0.000e+00 0.000e+00 
decodedPacket0_i\[18\] I *L 0.000e+00 *S 0.000e+00 0.000e+00 
decodedPacket0_i\[17\] I *L 0.000e+00 *S 0.000e+00 0.000e+00 
decodedPacket0_i\[16\] I *L 0.000e+00 *S 0.000e+00 0.000e+00 
decodedPacket0_i\[15\] I *L 0.000e+00 *S 0.000e+00 0.000e+00 
decodedPacket0_i\[14\] I *L 0.000e+00 *S 0.000e+00 0.000e+00 
decodedPacket0_i\[13\] I *L 0.000e+00 *S 0.000e+00 0.000e+00 
decodedPacket0_i\[12\] I *L 0.000e+00 *S 0.000e+00 0.000e+00 
decodedPacket0_i\[11\] I *L 0.000e+00 *S 0.000e+00 0.000e+00 
decodedPacket0_i\[10\] I *L 0.000e+00 *S 0.000e+00 0.000e+00 
decodedPacket0_i\[9\] I *L 0.000e+00 *S 0.000e+00 0.000e+00 
decodedPacket0_i\[8\] I *L 0.000e+00 *S 0.000e+00 0.000e+00 
decodedPacket0_i\[7\] I *L 0.000e+00 *S 0.000e+00 0.000e+00 
decodedPacket0_i\[6\] I *L 0.000e+00 *S 0.000e+00 0.000e+00 
decodedPacket0_i\[5\] I *L 0.000e+00 *S 0.000e+00 0.000e+00 
decodedPacket0_i\[4\] I *L 0.000e+00 *S 0.000e+00 0.000e+00 
decodedPacket0_i\[3\] I *L 0.000e+00 *S 0.000e+00 0.000e+00 
decodedPacket0_i\[2\] I *L 0.000e+00 *S 0.000e+00 0.000e+00 
decodedPacket0_i\[1\] I *L 0.000e+00 *S 0.000e+00 0.000e+00 
decodedPacket0_i\[0\] I *L 0.000e+00 *S 0.000e+00 0.000e+00 
decodedPacket1_i\[125\] I *L 0.000e+00 *S 0.000e+00 0.000e+00 
decodedPacket1_i\[124\] I *L 0.000e+00 *S 0.000e+00 0.000e+00 
decodedPacket1_i\[123\] I *L 0.000e+00 *S 0.000e+00 0.000e+00 
decodedPacket1_i\[122\] I *L 0.000e+00 *S 0.000e+00 0.000e+00 
decodedPacket1_i\[121\] I *L 0.000e+00 *S 0.000e+00 0.000e+00 
decodedPacket1_i\[120\] I *L 0.000e+00 *S 0.000e+00 0.000e+00 
decodedPacket1_i\[119\] I *L 0.000e+00 *S 0.000e+00 0.000e+00 
decodedPacket1_i\[118\] I *L 0.000e+00 *S 0.000e+00 0.000e+00 
decodedPacket1_i\[117\] I *L 0.000e+00 *S 0.000e+00 0.000e+00 
decodedPacket1_i\[116\] I *L 0.000e+00 *S 0.000e+00 0.000e+00 
decodedPacket1_i\[115\] I *L 0.000e+00 *S 0.000e+00 0.000e+00 
decodedPacket1_i\[114\] I *L 0.000e+00 *S 0.000e+00 0.000e+00 
decodedPacket1_i\[113\] I *L 0.000e+00 *S 0.000e+00 0.000e+00 
decodedPacket1_i\[112\] I *L 0.000e+00 *S 0.000e+00 0.000e+00 
decodedPacket1_i\[111\] I *L 0.000e+00 *S 0.000e+00 0.000e+00 
decodedPacket1_i\[110\] I *L 0.000e+00 *S 0.000e+00 0.000e+00 
decodedPacket1_i\[109\] I *L 0.000e+00 *S 0.000e+00 0.000e+00 
decodedPacket1_i\[108\] I *L 0.000e+00 *S 0.000e+00 0.000e+00 
decodedPacket1_i\[107\] I *L 0.000e+00 *S 0.000e+00 0.000e+00 
decodedPacket1_i\[106\] I *L 0.000e+00 *S 0.000e+00 0.000e+00 
decodedPacket1_i\[105\] I *L 0.000e+00 *S 0.000e+00 0.000e+00 
decodedPacket1_i\[104\] I *L 0.000e+00 *S 0.000e+00 0.000e+00 
decodedPacket1_i\[103\] I *L 0.000e+00 *S 0.000e+00 0.000e+00 
decodedPacket1_i\[102\] I *L 0.000e+00 *S 0.000e+00 0.000e+00 
decodedPacket1_i\[101\] I *L 0.000e+00 *S 0.000e+00 0.000e+00 
decodedPacket1_i\[100\] I *L 0.000e+00 *S 0.000e+00 0.000e+00 
decodedPacket1_i\[99\] I *L 0.000e+00 *S 0.000e+00 0.000e+00 
decodedPacket1_i\[98\] I *L 0.000e+00 *S 0.000e+00 0.000e+00 
decodedPacket1_i\[97\] I *L 0.000e+00 *S 0.000e+00 0.000e+00 
decodedPacket1_i\[96\] I *L 0.000e+00 *S 0.000e+00 0.000e+00 
decodedPacket1_i\[95\] I *L 0.000e+00 *S 0.000e+00 0.000e+00 
decodedPacket1_i\[94\] I *L 0.000e+00 *S 0.000e+00 0.000e+00 
decodedPacket1_i\[93\] I *L 0.000e+00 *S 0.000e+00 0.000e+00 
decodedPacket1_i\[92\] I *L 0.000e+00 *S 0.000e+00 0.000e+00 
decodedPacket1_i\[91\] I *L 0.000e+00 *S 0.000e+00 0.000e+00 
decodedPacket1_i\[90\] I *L 0.000e+00 *S 0.000e+00 0.000e+00 
decodedPacket1_i\[89\] I *L 0.000e+00 *S 0.000e+00 0.000e+00 
decodedPacket1_i\[88\] I *L 0.000e+00 *S 0.000e+00 0.000e+00 
decodedPacket1_i\[87\] I *L 0.000e+00 *S 0.000e+00 0.000e+00 
decodedPacket1_i\[86\] I *L 0.000e+00 *S 0.000e+00 0.000e+00 
decodedPacket1_i\[85\] I *L 0.000e+00 *S 0.000e+00 0.000e+00 
decodedPacket1_i\[84\] I *L 0.000e+00 *S 0.000e+00 0.000e+00 
decodedPacket1_i\[83\] I *L 0.000e+00 *S 0.000e+00 0.000e+00 
decodedPacket1_i\[82\] I *L 0.000e+00 *S 0.000e+00 0.000e+00 
decodedPacket1_i\[81\] I *L 0.000e+00 *S 0.000e+00 0.000e+00 
decodedPacket1_i\[80\] I *L 0.000e+00 *S 0.000e+00 0.000e+00 
decodedPacket1_i\[79\] I *L 0.000e+00 *S 0.000e+00 0.000e+00 
decodedPacket1_i\[78\] I *L 0.000e+00 *S 0.000e+00 0.000e+00 
decodedPacket1_i\[77\] I *L 0.000e+00 *S 0.000e+00 0.000e+00 
decodedPacket1_i\[76\] I *L 0.000e+00 *S 0.000e+00 0.000e+00 
decodedPacket1_i\[75\] I *L 0.000e+00 *S 0.000e+00 0.000e+00 
decodedPacket1_i\[74\] I *L 0.000e+00 *S 0.000e+00 0.000e+00 
decodedPacket1_i\[73\] I *L 0.000e+00 *S 0.000e+00 0.000e+00 
decodedPacket1_i\[72\] I *L 0.000e+00 *S 0.000e+00 0.000e+00 
decodedPacket1_i\[71\] I *L 0.000e+00 *S 0.000e+00 0.000e+00 
decodedPacket1_i\[70\] I *L 0.000e+00 *S 0.000e+00 0.000e+00 
decodedPacket1_i\[69\] I *L 0.000e+00 *S 0.000e+00 0.000e+00 
decodedPacket1_i\[68\] I *L 0.000e+00 *S 0.000e+00 0.000e+00 
decodedPacket1_i\[67\] I *L 0.000e+00 *S 0.000e+00 0.000e+00 
decodedPacket1_i\[66\] I *L 0.000e+00 *S 0.000e+00 0.000e+00 
decodedPacket1_i\[65\] I *L 0.000e+00 *S 0.000e+00 0.000e+00 
decodedPacket1_i\[64\] I *L 0.000e+00 *S 0.000e+00 0.000e+00 
decodedPacket1_i\[63\] I *L 0.000e+00 *S 0.000e+00 0.000e+00 
decodedPacket1_i\[62\] I *L 0.000e+00 *S 0.000e+00 0.000e+00 
decodedPacket1_i\[61\] I *L 0.000e+00 *S 0.000e+00 0.000e+00 
decodedPacket1_i\[60\] I *L 0.000e+00 *S 0.000e+00 0.000e+00 
decodedPacket1_i\[59\] I *L 0.000e+00 *S 0.000e+00 0.000e+00 
decodedPacket1_i\[58\] I *L 0.000e+00 *S 0.000e+00 0.000e+00 
decodedPacket1_i\[57\] I *L 0.000e+00 *S 0.000e+00 0.000e+00 
decodedPacket1_i\[56\] I *L 0.000e+00 *S 0.000e+00 0.000e+00 
decodedPacket1_i\[55\] I *L 0.000e+00 *S 0.000e+00 0.000e+00 
decodedPacket1_i\[54\] I *L 0.000e+00 *S 0.000e+00 0.000e+00 
decodedPacket1_i\[53\] I *L 0.000e+00 *S 0.000e+00 0.000e+00 
decodedPacket1_i\[52\] I *L 0.000e+00 *S 0.000e+00 0.000e+00 
decodedPacket1_i\[51\] I *L 0.000e+00 *S 0.000e+00 0.000e+00 
decodedPacket1_i\[50\] I *L 0.000e+00 *S 0.000e+00 0.000e+00 
decodedPacket1_i\[49\] I *L 0.000e+00 *S 0.000e+00 0.000e+00 
decodedPacket1_i\[48\] I *L 0.000e+00 *S 0.000e+00 0.000e+00 
decodedPacket1_i\[47\] I *L 0.000e+00 *S 0.000e+00 0.000e+00 
decodedPacket1_i\[46\] I *L 0.000e+00 *S 0.000e+00 0.000e+00 
decodedPacket1_i\[45\] I *L 0.000e+00 *S 0.000e+00 0.000e+00 
decodedPacket1_i\[44\] I *L 0.000e+00 *S 0.000e+00 0.000e+00 
decodedPacket1_i\[43\] I *L 0.000e+00 *S 0.000e+00 0.000e+00 
decodedPacket1_i\[42\] I *L 0.000e+00 *S 0.000e+00 0.000e+00 
decodedPacket1_i\[41\] I *L 0.000e+00 *S 0.000e+00 0.000e+00 
decodedPacket1_i\[40\] I *L 0.000e+00 *S 0.000e+00 0.000e+00 
decodedPacket1_i\[39\] I *L 0.000e+00 *S 0.000e+00 0.000e+00 
decodedPacket1_i\[38\] I *L 0.000e+00 *S 0.000e+00 0.000e+00 
decodedPacket1_i\[37\] I *L 0.000e+00 *S 0.000e+00 0.000e+00 
decodedPacket1_i\[36\] I *L 0.000e+00 *S 0.000e+00 0.000e+00 
decodedPacket1_i\[35\] I *L 0.000e+00 *S 0.000e+00 0.000e+00 
decodedPacket1_i\[34\] I *L 0.000e+00 *S 0.000e+00 0.000e+00 
decodedPacket1_i\[33\] I *L 0.000e+00 *S 0.000e+00 0.000e+00 
decodedPacket1_i\[32\] I *L 0.000e+00 *S 0.000e+00 0.000e+00 
decodedPacket1_i\[31\] I *L 0.000e+00 *S 0.000e+00 0.000e+00 
decodedPacket1_i\[30\] I *L 0.000e+00 *S 0.000e+00 0.000e+00 
decodedPacket1_i\[29\] I *L 0.000e+00 *S 0.000e+00 0.000e+00 
decodedPacket1_i\[28\] I *L 0.000e+00 *S 0.000e+00 0.000e+00 
decodedPacket1_i\[27\] I *L 0.000e+00 *S 0.000e+00 0.000e+00 
decodedPacket1_i\[26\] I *L 0.000e+00 *S 0.000e+00 0.000e+00 
decodedPacket1_i\[25\] I *L 0.000e+00 *S 0.000e+00 0.000e+00 
decodedPacket1_i\[24\] I *L 0.000e+00 *S 0.000e+00 0.000e+00 
decodedPacket1_i\[23\] I *L 0.000e+00 *S 0.000e+00 0.000e+00 
decodedPacket1_i\[22\] I *L 0.000e+00 *S 0.000e+00 0.000e+00 
decodedPacket1_i\[21\] I *L 0.000e+00 *S 0.000e+00 0.000e+00 
decodedPacket1_i\[20\] I *L 0.000e+00 *S 0.000e+00 0.000e+00 
decodedPacket1_i\[19\] I *L 0.000e+00 *S 0.000e+00 0.000e+00 
decodedPacket1_i\[18\] I *L 0.000e+00 *S 0.000e+00 0.000e+00 
decodedPacket1_i\[17\] I *L 0.000e+00 *S 0.000e+00 0.000e+00 
decodedPacket1_i\[16\] I *L 0.000e+00 *S 0.000e+00 0.000e+00 
decodedPacket1_i\[15\] I *L 0.000e+00 *S 0.000e+00 0.000e+00 
decodedPacket1_i\[14\] I *L 0.000e+00 *S 0.000e+00 0.000e+00 
decodedPacket1_i\[13\] I *L 0.000e+00 *S 0.000e+00 0.000e+00 
decodedPacket1_i\[12\] I *L 0.000e+00 *S 0.000e+00 0.000e+00 
decodedPacket1_i\[11\] I *L 0.000e+00 *S 0.000e+00 0.000e+00 
decodedPacket1_i\[10\] I *L 0.000e+00 *S 0.000e+00 0.000e+00 
decodedPacket1_i\[9\] I *L 0.000e+00 *S 0.000e+00 0.000e+00 
decodedPacket1_i\[8\] I *L 0.000e+00 *S 0.000e+00 0.000e+00 
decodedPacket1_i\[7\] I *L 0.000e+00 *S 0.000e+00 0.000e+00 
decodedPacket1_i\[6\] I *L 0.000e+00 *S 0.000e+00 0.000e+00 
decodedPacket1_i\[5\] I *L 0.000e+00 *S 0.000e+00 0.000e+00 
decodedPacket1_i\[4\] I *L 0.000e+00 *S 0.000e+00 0.000e+00 
decodedPacket1_i\[3\] I *L 0.000e+00 *S 0.000e+00 0.000e+00 
decodedPacket1_i\[2\] I *L 0.000e+00 *S 0.000e+00 0.000e+00 
decodedPacket1_i\[1\] I *L 0.000e+00 *S 0.000e+00 0.000e+00 
decodedPacket1_i\[0\] I *L 0.000e+00 *S 0.000e+00 0.000e+00 
decodedPacket2_i\[125\] I *L 0.000e+00 *S 0.000e+00 0.000e+00 
decodedPacket2_i\[124\] I *L 0.000e+00 *S 0.000e+00 0.000e+00 
decodedPacket2_i\[123\] I *L 0.000e+00 *S 0.000e+00 0.000e+00 
decodedPacket2_i\[122\] I *L 0.000e+00 *S 0.000e+00 0.000e+00 
decodedPacket2_i\[121\] I *L 0.000e+00 *S 0.000e+00 0.000e+00 
decodedPacket2_i\[120\] I *L 0.000e+00 *S 0.000e+00 0.000e+00 
decodedPacket2_i\[119\] I *L 0.000e+00 *S 0.000e+00 0.000e+00 
decodedPacket2_i\[118\] I *L 0.000e+00 *S 0.000e+00 0.000e+00 
decodedPacket2_i\[117\] I *L 0.000e+00 *S 0.000e+00 0.000e+00 
decodedPacket2_i\[116\] I *L 0.000e+00 *S 0.000e+00 0.000e+00 
decodedPacket2_i\[115\] I *L 0.000e+00 *S 0.000e+00 0.000e+00 
decodedPacket2_i\[114\] I *L 0.000e+00 *S 0.000e+00 0.000e+00 
decodedPacket2_i\[113\] I *L 0.000e+00 *S 0.000e+00 0.000e+00 
decodedPacket2_i\[112\] I *L 0.000e+00 *S 0.000e+00 0.000e+00 
decodedPacket2_i\[111\] I *L 0.000e+00 *S 0.000e+00 0.000e+00 
decodedPacket2_i\[110\] I *L 0.000e+00 *S 0.000e+00 0.000e+00 
decodedPacket2_i\[109\] I *L 0.000e+00 *S 0.000e+00 0.000e+00 
decodedPacket2_i\[108\] I *L 0.000e+00 *S 0.000e+00 0.000e+00 
decodedPacket2_i\[107\] I *L 0.000e+00 *S 0.000e+00 0.000e+00 
decodedPacket2_i\[106\] I *L 0.000e+00 *S 0.000e+00 0.000e+00 
decodedPacket2_i\[105\] I *L 0.000e+00 *S 0.000e+00 0.000e+00 
decodedPacket2_i\[104\] I *L 0.000e+00 *S 0.000e+00 0.000e+00 
decodedPacket2_i\[103\] I *L 0.000e+00 *S 0.000e+00 0.000e+00 
decodedPacket2_i\[102\] I *L 0.000e+00 *S 0.000e+00 0.000e+00 
decodedPacket2_i\[101\] I *L 0.000e+00 *S 0.000e+00 0.000e+00 
decodedPacket2_i\[100\] I *L 0.000e+00 *S 0.000e+00 0.000e+00 
decodedPacket2_i\[99\] I *L 0.000e+00 *S 0.000e+00 0.000e+00 
decodedPacket2_i\[98\] I *L 0.000e+00 *S 0.000e+00 0.000e+00 
decodedPacket2_i\[97\] I *L 0.000e+00 *S 0.000e+00 0.000e+00 
decodedPacket2_i\[96\] I *L 0.000e+00 *S 0.000e+00 0.000e+00 
decodedPacket2_i\[95\] I *L 0.000e+00 *S 0.000e+00 0.000e+00 
decodedPacket2_i\[94\] I *L 0.000e+00 *S 0.000e+00 0.000e+00 
decodedPacket2_i\[93\] I *L 0.000e+00 *S 0.000e+00 0.000e+00 
decodedPacket2_i\[92\] I *L 0.000e+00 *S 0.000e+00 0.000e+00 
decodedPacket2_i\[91\] I *L 0.000e+00 *S 0.000e+00 0.000e+00 
decodedPacket2_i\[90\] I *L 0.000e+00 *S 0.000e+00 0.000e+00 
decodedPacket2_i\[89\] I *L 0.000e+00 *S 0.000e+00 0.000e+00 
decodedPacket2_i\[88\] I *L 0.000e+00 *S 0.000e+00 0.000e+00 
decodedPacket2_i\[87\] I *L 0.000e+00 *S 0.000e+00 0.000e+00 
decodedPacket2_i\[86\] I *L 0.000e+00 *S 0.000e+00 0.000e+00 
decodedPacket2_i\[85\] I *L 0.000e+00 *S 0.000e+00 0.000e+00 
decodedPacket2_i\[84\] I *L 0.000e+00 *S 0.000e+00 0.000e+00 
decodedPacket2_i\[83\] I *L 0.000e+00 *S 0.000e+00 0.000e+00 
decodedPacket2_i\[82\] I *L 0.000e+00 *S 0.000e+00 0.000e+00 
decodedPacket2_i\[81\] I *L 0.000e+00 *S 0.000e+00 0.000e+00 
decodedPacket2_i\[80\] I *L 0.000e+00 *S 0.000e+00 0.000e+00 
decodedPacket2_i\[79\] I *L 0.000e+00 *S 0.000e+00 0.000e+00 
decodedPacket2_i\[78\] I *L 0.000e+00 *S 0.000e+00 0.000e+00 
decodedPacket2_i\[77\] I *L 0.000e+00 *S 0.000e+00 0.000e+00 
decodedPacket2_i\[76\] I *L 0.000e+00 *S 0.000e+00 0.000e+00 
decodedPacket2_i\[75\] I *L 0.000e+00 *S 0.000e+00 0.000e+00 
decodedPacket2_i\[74\] I *L 0.000e+00 *S 0.000e+00 0.000e+00 
decodedPacket2_i\[73\] I *L 0.000e+00 *S 0.000e+00 0.000e+00 
decodedPacket2_i\[72\] I *L 0.000e+00 *S 0.000e+00 0.000e+00 
decodedPacket2_i\[71\] I *L 0.000e+00 *S 0.000e+00 0.000e+00 
decodedPacket2_i\[70\] I *L 0.000e+00 *S 0.000e+00 0.000e+00 
decodedPacket2_i\[69\] I *L 0.000e+00 *S 0.000e+00 0.000e+00 
decodedPacket2_i\[68\] I *L 0.000e+00 *S 0.000e+00 0.000e+00 
decodedPacket2_i\[67\] I *L 0.000e+00 *S 0.000e+00 0.000e+00 
decodedPacket2_i\[66\] I *L 0.000e+00 *S 0.000e+00 0.000e+00 
decodedPacket2_i\[65\] I *L 0.000e+00 *S 0.000e+00 0.000e+00 
decodedPacket2_i\[64\] I *L 0.000e+00 *S 0.000e+00 0.000e+00 
decodedPacket2_i\[63\] I *L 0.000e+00 *S 0.000e+00 0.000e+00 
decodedPacket2_i\[62\] I *L 0.000e+00 *S 0.000e+00 0.000e+00 
decodedPacket2_i\[61\] I *L 0.000e+00 *S 0.000e+00 0.000e+00 
decodedPacket2_i\[60\] I *L 0.000e+00 *S 0.000e+00 0.000e+00 
decodedPacket2_i\[59\] I *L 0.000e+00 *S 0.000e+00 0.000e+00 
decodedPacket2_i\[58\] I *L 0.000e+00 *S 0.000e+00 0.000e+00 
decodedPacket2_i\[57\] I *L 0.000e+00 *S 0.000e+00 0.000e+00 
decodedPacket2_i\[56\] I *L 0.000e+00 *S 0.000e+00 0.000e+00 
decodedPacket2_i\[55\] I *L 0.000e+00 *S 0.000e+00 0.000e+00 
decodedPacket2_i\[54\] I *L 0.000e+00 *S 0.000e+00 0.000e+00 
decodedPacket2_i\[53\] I *L 0.000e+00 *S 0.000e+00 0.000e+00 
decodedPacket2_i\[52\] I *L 0.000e+00 *S 0.000e+00 0.000e+00 
decodedPacket2_i\[51\] I *L 0.000e+00 *S 0.000e+00 0.000e+00 
decodedPacket2_i\[50\] I *L 0.000e+00 *S 0.000e+00 0.000e+00 
decodedPacket2_i\[49\] I *L 0.000e+00 *S 0.000e+00 0.000e+00 
decodedPacket2_i\[48\] I *L 0.000e+00 *S 0.000e+00 0.000e+00 
decodedPacket2_i\[47\] I *L 0.000e+00 *S 0.000e+00 0.000e+00 
decodedPacket2_i\[46\] I *L 0.000e+00 *S 0.000e+00 0.000e+00 
decodedPacket2_i\[45\] I *L 0.000e+00 *S 0.000e+00 0.000e+00 
decodedPacket2_i\[44\] I *L 0.000e+00 *S 0.000e+00 0.000e+00 
decodedPacket2_i\[43\] I *L 0.000e+00 *S 0.000e+00 0.000e+00 
decodedPacket2_i\[42\] I *L 0.000e+00 *S 0.000e+00 0.000e+00 
decodedPacket2_i\[41\] I *L 0.000e+00 *S 0.000e+00 0.000e+00 
decodedPacket2_i\[40\] I *L 0.000e+00 *S 0.000e+00 0.000e+00 
decodedPacket2_i\[39\] I *L 0.000e+00 *S 0.000e+00 0.000e+00 
decodedPacket2_i\[38\] I *L 0.000e+00 *S 0.000e+00 0.000e+00 
decodedPacket2_i\[37\] I *L 0.000e+00 *S 0.000e+00 0.000e+00 
decodedPacket2_i\[36\] I *L 0.000e+00 *S 0.000e+00 0.000e+00 
decodedPacket2_i\[35\] I *L 0.000e+00 *S 0.000e+00 0.000e+00 
decodedPacket2_i\[34\] I *L 0.000e+00 *S 0.000e+00 0.000e+00 
decodedPacket2_i\[33\] I *L 0.000e+00 *S 0.000e+00 0.000e+00 
decodedPacket2_i\[32\] I *L 0.000e+00 *S 0.000e+00 0.000e+00 
decodedPacket2_i\[31\] I *L 0.000e+00 *S 0.000e+00 0.000e+00 
decodedPacket2_i\[30\] I *L 0.000e+00 *S 0.000e+00 0.000e+00 
decodedPacket2_i\[29\] I *L 0.000e+00 *S 0.000e+00 0.000e+00 
decodedPacket2_i\[28\] I *L 0.000e+00 *S 0.000e+00 0.000e+00 
decodedPacket2_i\[27\] I *L 0.000e+00 *S 0.000e+00 0.000e+00 
decodedPacket2_i\[26\] I *L 0.000e+00 *S 0.000e+00 0.000e+00 
decodedPacket2_i\[25\] I *L 0.000e+00 *S 0.000e+00 0.000e+00 
decodedPacket2_i\[24\] I *L 0.000e+00 *S 0.000e+00 0.000e+00 
decodedPacket2_i\[23\] I *L 0.000e+00 *S 0.000e+00 0.000e+00 
decodedPacket2_i\[22\] I *L 0.000e+00 *S 0.000e+00 0.000e+00 
decodedPacket2_i\[21\] I *L 0.000e+00 *S 0.000e+00 0.000e+00 
decodedPacket2_i\[20\] I *L 0.000e+00 *S 0.000e+00 0.000e+00 
decodedPacket2_i\[19\] I *L 0.000e+00 *S 0.000e+00 0.000e+00 
decodedPacket2_i\[18\] I *L 0.000e+00 *S 0.000e+00 0.000e+00 
decodedPacket2_i\[17\] I *L 0.000e+00 *S 0.000e+00 0.000e+00 
decodedPacket2_i\[16\] I *L 0.000e+00 *S 0.000e+00 0.000e+00 
decodedPacket2_i\[15\] I *L 0.000e+00 *S 0.000e+00 0.000e+00 
decodedPacket2_i\[14\] I *L 0.000e+00 *S 0.000e+00 0.000e+00 
decodedPacket2_i\[13\] I *L 0.000e+00 *S 0.000e+00 0.000e+00 
decodedPacket2_i\[12\] I *L 0.000e+00 *S 0.000e+00 0.000e+00 
decodedPacket2_i\[11\] I *L 0.000e+00 *S 0.000e+00 0.000e+00 
decodedPacket2_i\[10\] I *L 0.000e+00 *S 0.000e+00 0.000e+00 
decodedPacket2_i\[9\] I *L 0.000e+00 *S 0.000e+00 0.000e+00 
decodedPacket2_i\[8\] I *L 0.000e+00 *S 0.000e+00 0.000e+00 
decodedPacket2_i\[7\] I *L 0.000e+00 *S 0.000e+00 0.000e+00 
decodedPacket2_i\[6\] I *L 0.000e+00 *S 0.000e+00 0.000e+00 
decodedPacket2_i\[5\] I *L 0.000e+00 *S 0.000e+00 0.000e+00 
decodedPacket2_i\[4\] I *L 0.000e+00 *S 0.000e+00 0.000e+00 
decodedPacket2_i\[3\] I *L 0.000e+00 *S 0.000e+00 0.000e+00 
decodedPacket2_i\[2\] I *L 0.000e+00 *S 0.000e+00 0.000e+00 
decodedPacket2_i\[1\] I *L 0.000e+00 *S 0.000e+00 0.000e+00 
decodedPacket2_i\[0\] I *L 0.000e+00 *S 0.000e+00 0.000e+00 
decodedPacket3_i\[125\] I *L 0.000e+00 *S 0.000e+00 0.000e+00 
decodedPacket3_i\[124\] I *L 0.000e+00 *S 0.000e+00 0.000e+00 
decodedPacket3_i\[123\] I *L 0.000e+00 *S 0.000e+00 0.000e+00 
decodedPacket3_i\[122\] I *L 0.000e+00 *S 0.000e+00 0.000e+00 
decodedPacket3_i\[121\] I *L 0.000e+00 *S 0.000e+00 0.000e+00 
decodedPacket3_i\[120\] I *L 0.000e+00 *S 0.000e+00 0.000e+00 
decodedPacket3_i\[119\] I *L 0.000e+00 *S 0.000e+00 0.000e+00 
decodedPacket3_i\[118\] I *L 0.000e+00 *S 0.000e+00 0.000e+00 
decodedPacket3_i\[117\] I *L 0.000e+00 *S 0.000e+00 0.000e+00 
decodedPacket3_i\[116\] I *L 0.000e+00 *S 0.000e+00 0.000e+00 
decodedPacket3_i\[115\] I *L 0.000e+00 *S 0.000e+00 0.000e+00 
decodedPacket3_i\[114\] I *L 0.000e+00 *S 0.000e+00 0.000e+00 
decodedPacket3_i\[113\] I *L 0.000e+00 *S 0.000e+00 0.000e+00 
decodedPacket3_i\[112\] I *L 0.000e+00 *S 0.000e+00 0.000e+00 
decodedPacket3_i\[111\] I *L 0.000e+00 *S 0.000e+00 0.000e+00 
decodedPacket3_i\[110\] I *L 0.000e+00 *S 0.000e+00 0.000e+00 
decodedPacket3_i\[109\] I *L 0.000e+00 *S 0.000e+00 0.000e+00 
decodedPacket3_i\[108\] I *L 0.000e+00 *S 0.000e+00 0.000e+00 
decodedPacket3_i\[107\] I *L 0.000e+00 *S 0.000e+00 0.000e+00 
decodedPacket3_i\[106\] I *L 0.000e+00 *S 0.000e+00 0.000e+00 
decodedPacket3_i\[105\] I *L 0.000e+00 *S 0.000e+00 0.000e+00 
decodedPacket3_i\[104\] I *L 0.000e+00 *S 0.000e+00 0.000e+00 
decodedPacket3_i\[103\] I *L 0.000e+00 *S 0.000e+00 0.000e+00 
decodedPacket3_i\[102\] I *L 0.000e+00 *S 0.000e+00 0.000e+00 
decodedPacket3_i\[101\] I *L 0.000e+00 *S 0.000e+00 0.000e+00 
decodedPacket3_i\[100\] I *L 0.000e+00 *S 0.000e+00 0.000e+00 
decodedPacket3_i\[99\] I *L 0.000e+00 *S 0.000e+00 0.000e+00 
decodedPacket3_i\[98\] I *L 0.000e+00 *S 0.000e+00 0.000e+00 
decodedPacket3_i\[97\] I *L 0.000e+00 *S 0.000e+00 0.000e+00 
decodedPacket3_i\[96\] I *L 0.000e+00 *S 0.000e+00 0.000e+00 
decodedPacket3_i\[95\] I *L 0.000e+00 *S 0.000e+00 0.000e+00 
decodedPacket3_i\[94\] I *L 0.000e+00 *S 0.000e+00 0.000e+00 
decodedPacket3_i\[93\] I *L 0.000e+00 *S 0.000e+00 0.000e+00 
decodedPacket3_i\[92\] I *L 0.000e+00 *S 0.000e+00 0.000e+00 
decodedPacket3_i\[91\] I *L 0.000e+00 *S 0.000e+00 0.000e+00 
decodedPacket3_i\[90\] I *L 0.000e+00 *S 0.000e+00 0.000e+00 
decodedPacket3_i\[89\] I *L 0.000e+00 *S 0.000e+00 0.000e+00 
decodedPacket3_i\[88\] I *L 0.000e+00 *S 0.000e+00 0.000e+00 
decodedPacket3_i\[87\] I *L 0.000e+00 *S 0.000e+00 0.000e+00 
decodedPacket3_i\[86\] I *L 0.000e+00 *S 0.000e+00 0.000e+00 
decodedPacket3_i\[85\] I *L 0.000e+00 *S 0.000e+00 0.000e+00 
decodedPacket3_i\[84\] I *L 0.000e+00 *S 0.000e+00 0.000e+00 
decodedPacket3_i\[83\] I *L 0.000e+00 *S 0.000e+00 0.000e+00 
decodedPacket3_i\[82\] I *L 0.000e+00 *S 0.000e+00 0.000e+00 
decodedPacket3_i\[81\] I *L 0.000e+00 *S 0.000e+00 0.000e+00 
decodedPacket3_i\[80\] I *L 0.000e+00 *S 0.000e+00 0.000e+00 
decodedPacket3_i\[79\] I *L 0.000e+00 *S 0.000e+00 0.000e+00 
decodedPacket3_i\[78\] I *L 0.000e+00 *S 0.000e+00 0.000e+00 
decodedPacket3_i\[77\] I *L 0.000e+00 *S 0.000e+00 0.000e+00 
decodedPacket3_i\[76\] I *L 0.000e+00 *S 0.000e+00 0.000e+00 
decodedPacket3_i\[75\] I *L 0.000e+00 *S 0.000e+00 0.000e+00 
decodedPacket3_i\[74\] I *L 0.000e+00 *S 0.000e+00 0.000e+00 
decodedPacket3_i\[73\] I *L 0.000e+00 *S 0.000e+00 0.000e+00 
decodedPacket3_i\[72\] I *L 0.000e+00 *S 0.000e+00 0.000e+00 
decodedPacket3_i\[71\] I *L 0.000e+00 *S 0.000e+00 0.000e+00 
decodedPacket3_i\[70\] I *L 0.000e+00 *S 0.000e+00 0.000e+00 
decodedPacket3_i\[69\] I *L 0.000e+00 *S 0.000e+00 0.000e+00 
decodedPacket3_i\[68\] I *L 0.000e+00 *S 0.000e+00 0.000e+00 
decodedPacket3_i\[67\] I *L 0.000e+00 *S 0.000e+00 0.000e+00 
decodedPacket3_i\[66\] I *L 0.000e+00 *S 0.000e+00 0.000e+00 
decodedPacket3_i\[65\] I *L 0.000e+00 *S 0.000e+00 0.000e+00 
decodedPacket3_i\[64\] I *L 0.000e+00 *S 0.000e+00 0.000e+00 
decodedPacket3_i\[63\] I *L 0.000e+00 *S 0.000e+00 0.000e+00 
decodedPacket3_i\[62\] I *L 0.000e+00 *S 0.000e+00 0.000e+00 
decodedPacket3_i\[61\] I *L 0.000e+00 *S 0.000e+00 0.000e+00 
decodedPacket3_i\[60\] I *L 0.000e+00 *S 0.000e+00 0.000e+00 
decodedPacket3_i\[59\] I *L 0.000e+00 *S 0.000e+00 0.000e+00 
decodedPacket3_i\[58\] I *L 0.000e+00 *S 0.000e+00 0.000e+00 
decodedPacket3_i\[57\] I *L 0.000e+00 *S 0.000e+00 0.000e+00 
decodedPacket3_i\[56\] I *L 0.000e+00 *S 0.000e+00 0.000e+00 
decodedPacket3_i\[55\] I *L 0.000e+00 *S 0.000e+00 0.000e+00 
decodedPacket3_i\[54\] I *L 0.000e+00 *S 0.000e+00 0.000e+00 
decodedPacket3_i\[53\] I *L 0.000e+00 *S 0.000e+00 0.000e+00 
decodedPacket3_i\[52\] I *L 0.000e+00 *S 0.000e+00 0.000e+00 
decodedPacket3_i\[51\] I *L 0.000e+00 *S 0.000e+00 0.000e+00 
decodedPacket3_i\[50\] I *L 0.000e+00 *S 0.000e+00 0.000e+00 
decodedPacket3_i\[49\] I *L 0.000e+00 *S 0.000e+00 0.000e+00 
decodedPacket3_i\[48\] I *L 0.000e+00 *S 0.000e+00 0.000e+00 
decodedPacket3_i\[47\] I *L 0.000e+00 *S 0.000e+00 0.000e+00 
decodedPacket3_i\[46\] I *L 0.000e+00 *S 0.000e+00 0.000e+00 
decodedPacket3_i\[45\] I *L 0.000e+00 *S 0.000e+00 0.000e+00 
decodedPacket3_i\[44\] I *L 0.000e+00 *S 0.000e+00 0.000e+00 
decodedPacket3_i\[43\] I *L 0.000e+00 *S 0.000e+00 0.000e+00 
decodedPacket3_i\[42\] I *L 0.000e+00 *S 0.000e+00 0.000e+00 
decodedPacket3_i\[41\] I *L 0.000e+00 *S 0.000e+00 0.000e+00 
decodedPacket3_i\[40\] I *L 0.000e+00 *S 0.000e+00 0.000e+00 
decodedPacket3_i\[39\] I *L 0.000e+00 *S 0.000e+00 0.000e+00 
decodedPacket3_i\[38\] I *L 0.000e+00 *S 0.000e+00 0.000e+00 